* NGSPICE file created from tt_um_oscillating_bones.ext - technology: ihp-sg13g2

.subckt tt_um_oscillating_bones ena clk rst_n ui_in[0] ui_in[1] ui_in[2] ui_in[3]
+ ui_in[4] ui_in[5] ui_in[6] ui_in[7] uio_in[0] uio_in[1] uio_in[2] uio_in[3] uio_in[4]
+ uio_in[5] uio_in[6] uio_in[7] uo_out[0] uo_out[1] uo_out[2] uo_out[3] uo_out[4]
+ uo_out[5] uo_out[6] uo_out[7] uio_out[0] uio_out[1] uio_out[2] uio_out[3] uio_out[4]
+ uio_out[5] uio_out[6] uio_out[7] uio_oe[0] uio_oe[1] uio_oe[2] uio_oe[3] uio_oe[4]
+ uio_oe[5] uio_oe[6] uio_oe[7] VGND VDPWR
X0 uo_out[1].t0 a_22205_61585# VGND.t119 VGND.t118 sg13_lv_nmos ad=0.1406p pd=1.12u as=0.2516p ps=2.16u w=0.74u l=0.13u
X1 VDPWR.t52 a_16367_61578# freq_divider_0.sg13g2_dfrbp_2_0.D VDPWR.t2 sg13_lv_pmos ad=0.2014p pd=1.53u as=0.2128p ps=1.5u w=1.12u l=0.13u
X2 VGND.t18 a_17996_61559# a_17075_61640# VGND.t37 sg13_lv_nmos ad=0.1626p pd=1.415u as=0.2516p ps=2.16u w=0.74u l=0.13u
X3 VGND.t30 freq_divider_0.sg13g2_dfrbp_2_0.RESET_B a_21132_61704# VGND.t29 sg13_lv_nmos ad=0.1701p pd=1.65u as=38.85f ps=0.605u w=0.42u l=0.13u
X4 a_16707_61717# a_16367_61578# VDPWR.t52 VDPWR.t2 sg13_lv_pmos ad=79.8f pd=0.8u as=0.2014p ps=1.53u w=0.42u l=0.13u
X5 a_17910_61326# freq_divider_0.sg13g2_dfrbp_2_0.RESET_B VDPWR.t20 VDPWR.t2 sg13_lv_pmos ad=79.8f pd=0.8u as=0.36237p ps=2.605u w=0.42u l=0.13u
X6 a_20876_61559# freq_divider_0.sg13g2_dfrbp_2_0.RESET_B VDPWR.t19 VDPWR.t2 sg13_lv_pmos ad=0.147p pd=1.54u as=0.1563p ps=1.22u w=0.42u l=0.13u
X7 ring_0/inverter_ring_0/skullfet_inverter_19.A ring_0/inverter_ring_0/skullfet_inverter_0.Y VDPWR.t44 VDPWR.t43 sg13_lv_pmos ad=6.2694p pd=26.64u as=4.4307p ps=10.9u w=4.05u l=0.4u
X8 VGND.t80 a_22511_61578# a_22205_61585# VGND.t84 sg13_lv_nmos ad=0.1331p pd=1.12u as=0.2176p ps=1.96u w=0.64u l=0.13u
X9 VGND.t28 freq_divider_0.sg13g2_dfrbp_2_0.RESET_B a_18252_61704# VGND.t27 sg13_lv_nmos ad=0.1701p pd=1.65u as=38.85f ps=0.605u w=0.42u l=0.13u
X10 ring_0/inverter_ring_0/skullfet_inverter_6.A ring_0/inverter_ring_0/skullfet_inverter_7.A VDPWR.t29 VDPWR.t28 sg13_lv_pmos ad=6.2694p pd=26.64u as=4.4307p ps=10.9u w=4.05u l=0.4u
X11 VGND.t43 ring_0/inverter_ring_0/skullfet_inverter_13.A ring_0/inverter_ring_0/skullfet_inverter_12.A VGND.t42 sg13_lv_nmos ad=4.2687p pd=10.82u as=6.4314p ps=26.72u w=4.05u l=0.4u
X12 VDPWR.t14 a_20876_61559# a_19955_61640# VDPWR.t2 sg13_lv_pmos ad=0.36237p pd=2.605u as=0.34p ps=2.68u w=1u l=0.13u
X13 a_23109_61717# a_22851_61717# VGND.t13 VGND.t12 sg13_lv_nmos ad=0.1428p pd=1.52u as=79.8f ps=0.8u w=0.42u l=0.13u
X14 a_24054_61326# freq_divider_0.sg13g2_dfrbp_2_0.RESET_B VDPWR.t18 VDPWR.t2 sg13_lv_pmos ad=79.8f pd=0.8u as=0.36237p ps=2.605u w=0.42u l=0.13u
X15 VGND.t54 ring_0/inverter_ring_0/skullfet_inverter_17.A ring_0/inverter_ring_0/skullfet_inverter_16.A VGND.t53 sg13_lv_nmos ad=4.2687p pd=10.82u as=6.4314p ps=26.72u w=4.05u l=0.4u
X16 VGND.t26 freq_divider_0.sg13g2_dfrbp_2_0.RESET_B a_16801_61717# VGND.t25 sg13_lv_nmos ad=79.8f pd=0.8u as=37.8f ps=0.6u w=0.42u l=0.13u
X17 a_20876_61559# a_19947_61366# a_20747_61559# VGND.t106 sg13_lv_nmos ad=81f pd=0.81u as=0.2163p ps=1.87u w=0.42u l=0.13u
X18 ring_0/inverter_ring_0/skullfet_inverter_12.A ring_0/inverter_ring_0/skullfet_inverter_13.A VDPWR.t33 VDPWR.t32 sg13_lv_pmos ad=6.2694p pd=26.64u as=4.4307p ps=10.9u w=4.05u l=0.4u
X19 VDPWR.t65 a_22511_61578# freq_divider_0.sg13g2_dfrbp_2_2.D VDPWR.t2 sg13_lv_pmos ad=0.2014p pd=1.53u as=0.2128p ps=1.5u w=1.12u l=0.13u
X20 a_23211_61366# a_23350_61250# VDPWR.t11 VDPWR.t2 sg13_lv_pmos ad=0.3864p pd=2.93u as=1.55707p ps=9.54u w=1.12u l=0.13u
X21 a_23211_61366# a_23350_61250# VGND.t103 VGND.t102 sg13_lv_nmos ad=0.2516p pd=2.16u as=2.07232p ps=13.14u w=0.74u l=0.13u
X22 VGND.t111 ring_0/inverter_ring_0/skullfet_inverter_9.A ring_0/inverter_ring_0/skullfet_inverter_8.A VGND.t110 sg13_lv_nmos ad=4.2687p pd=10.82u as=6.4314p ps=26.72u w=4.05u l=0.4u
X23 ring_0/inverter_ring_0/skullfet_inverter_11.A ring_0/inverter_ring_0/skullfet_inverter_12.A VDPWR.t1 VDPWR.t0 sg13_lv_pmos ad=6.2694p pd=26.64u as=4.4307p ps=10.9u w=4.05u l=0.4u
X24 VDPWR.t34 freq_divider_0.sg13g2_dfrbp_2_2.D a_24054_61326# VDPWR.t2 sg13_lv_pmos ad=0.1428p pd=1.52u as=79.8f ps=0.8u w=0.42u l=0.13u
X25 a_22851_61717# a_22511_61578# VDPWR.t65 VDPWR.t2 sg13_lv_pmos ad=79.8f pd=0.8u as=0.2014p ps=1.53u w=0.42u l=0.13u
X26 a_23161_61402# a_22851_61717# VDPWR.t11 VDPWR.t2 sg13_lv_pmos ad=52.5f pd=0.67u as=1.55707p ps=9.54u w=0.42u l=0.13u
X27 VDPWR.t50 a_16367_61578# a_16061_61585# VDPWR.t2 sg13_lv_pmos ad=0.2083p pd=1.5u as=0.34p ps=2.68u w=1u l=0.13u
X28 a_17996_61559# a_17067_61366# a_17867_61559# VGND.t3 sg13_lv_nmos ad=81f pd=0.81u as=0.2163p ps=1.87u w=0.42u l=0.13u
X29 freq_divider_0.sg13g2_dfrbp_2_1.D a_19247_61578# VDPWR.t68 VDPWR.t2 sg13_lv_pmos ad=0.2128p pd=1.5u as=0.2083p ps=1.5u w=1.12u l=0.13u
X30 VDPWR.t11 a_21777_61520# freq_divider_0.sg13g2_dfrbp_2_0.RESET_B VDPWR.t2 sg13_lv_pmos ad=1.55707p pd=9.54u as=0.3927p ps=2.99u w=1.155u l=0.13u
X31 a_22945_61717# a_22511_61578# a_22851_61717# VGND.t83 sg13_lv_nmos ad=37.8f pd=0.6u as=0.1428p ps=1.52u w=0.42u l=0.13u
X32 VGND.t24 freq_divider_0.sg13g2_dfrbp_2_0.RESET_B a_24396_61704# VGND.t23 sg13_lv_nmos ad=0.1701p pd=1.65u as=38.85f ps=0.605u w=0.42u l=0.13u
X33 VDPWR.t63 a_22511_61578# a_22205_61585# VDPWR.t2 sg13_lv_pmos ad=0.2083p pd=1.5u as=0.34p ps=2.68u w=1u l=0.13u
X34 ring_0/inverter_ring_0/skullfet_inverter_3.A ring_0/inverter_ring_0/skullfet_inverter_4.A VDPWR.t8 VDPWR.t7 sg13_lv_pmos ad=6.2694p pd=26.64u as=4.4307p ps=10.9u w=4.05u l=0.4u
X35 a_24396_61704# a_23219_61640# a_24011_61559# VGND.t97 sg13_lv_nmos ad=38.85f pd=0.605u as=0.1596p ps=1.6u w=0.42u l=0.13u
X36 a_21856_61617# a_21980_61316# VDPWR.t11 VDPWR.t2 sg13_lv_pmos ad=0.2442p pd=2.06u as=1.55707p ps=9.54u w=0.66u l=0.13u
X37 uo_out[2].t1 a_18941_61585# VGND.t61 VGND.t60 sg13_lv_nmos ad=0.1406p pd=1.12u as=0.2516p ps=2.16u w=0.74u l=0.13u
X38 ring_0/inverter_ring_0/skullfet_inverter_17.A ring_0/inverter_ring_0/skullfet_inverter_18.A VDPWR.t60 VDPWR.t59 sg13_lv_pmos ad=6.2694p pd=26.64u as=4.4307p ps=10.9u w=4.05u l=0.4u
X39 VGND.t7 ring_0/inverter_ring_0/skullfet_inverter_14.A ring_0/inverter_ring_0/skullfet_inverter_13.A VGND.t6 sg13_lv_nmos ad=4.2687p pd=10.82u as=6.4314p ps=26.72u w=4.05u l=0.4u
X40 uo_out[2].t0 a_18941_61585# VDPWR.t47 VDPWR.t2 sg13_lv_pmos ad=0.2156p pd=1.505u as=0.3808p ps=2.92u w=1.12u l=0.13u
X41 VGND.t33 ring_0/inverter_ring_0/skullfet_inverter_2.A ring_0/inverter_ring_0/skullfet_inverter_1.A VGND.t32 sg13_lv_nmos ad=4.2687p pd=10.82u as=6.4314p ps=26.72u w=4.05u l=0.4u
X42 a_19247_61578# a_19947_61366# a_19897_61402# VDPWR.t2 sg13_lv_pmos ad=0.19115p pd=1.565u as=52.5f ps=0.67u w=0.42u l=0.13u
X43 ring_0/inverter_ring_0/skullfet_inverter_4.A ring_0/inverter_ring_0/skullfet_inverter_5.A VDPWR.t25 VDPWR.t24 sg13_lv_pmos ad=6.2694p pd=26.64u as=4.4307p ps=10.9u w=4.05u l=0.4u
X44 VGND.t73 ring_0/inverter_ring_0/skullfet_inverter_11.A ring_0/inverter_ring_0/skullfet_inverter_10.A VGND.t72 sg13_lv_nmos ad=4.2687p pd=10.82u as=6.4314p ps=26.72u w=4.05u l=0.4u
X45 VDPWR.t46 a_18941_61585# uo_out[2].t0 VDPWR.t2 sg13_lv_pmos ad=0.3808p pd=2.92u as=0.2156p ps=1.505u w=1.12u l=0.13u
X46 VGND.t109 ring_0/inverter_ring_0/skullfet_inverter_0.A ring_0/inverter_ring_0/skullfet_inverter_0.Y VGND.t108 sg13_lv_nmos ad=4.2687p pd=10.82u as=6.4314p ps=26.72u w=4.05u l=0.4u
X47 a_20876_61559# a_19947_61366# a_20790_61326# VDPWR.t2 sg13_lv_pmos ad=79.8f pd=0.8u as=0.1428p ps=1.52u w=0.42u l=0.13u
X48 a_18106_61326# a_17206_61250# a_17996_61559# VDPWR.t2 sg13_lv_pmos ad=54.6f pd=0.68u as=79.8f ps=0.8u w=0.42u l=0.13u
X49 VGND.t41 ring_0/inverter_ring_0/skullfet_inverter_3.A ring_0/inverter_ring_0/skullfet_inverter_2.A VGND.t40 sg13_lv_nmos ad=4.2687p pd=10.82u as=6.4314p ps=26.72u w=4.05u l=0.4u
X50 VGND.t124 ring_0/inverter_ring_0/skullfet_inverter_16.A uo_out[0].t1 VGND.t123 sg13_lv_nmos ad=4.2687p pd=10.82u as=6.4314p ps=26.72u w=4.05u l=0.4u
X51 ring_0/inverter_ring_0/skullfet_inverter_18.A ring_0/inverter_ring_0/skullfet_inverter_19.A VDPWR.t62 VDPWR.t61 sg13_lv_pmos ad=6.2694p pd=26.64u as=4.4307p ps=10.9u w=4.05u l=0.4u
X52 a_19947_61366# a_20086_61250# VDPWR.t11 VDPWR.t2 sg13_lv_pmos ad=0.3864p pd=2.93u as=1.55707p ps=9.54u w=1.12u l=0.13u
X53 ring_0/inverter_ring_0/skullfet_inverter_9.A ring_0/inverter_ring_0/skullfet_inverter_10.A VDPWR.t36 VDPWR.t35 sg13_lv_pmos ad=6.2694p pd=26.64u as=4.4307p ps=10.9u w=4.05u l=0.4u
X54 VGND.t82 a_22511_61578# freq_divider_0.sg13g2_dfrbp_2_2.D VGND.t81 sg13_lv_nmos ad=0.2516p pd=2.16u as=0.1406p ps=1.12u w=0.74u l=0.13u
X55 VGND.t101 uo_out[0].t2 ring_0/inverter_ring_0/skullfet_inverter_14.A VGND.t100 sg13_lv_nmos ad=4.2687p pd=10.82u as=6.4314p ps=26.72u w=4.05u l=0.4u
X56 VGND.t117 a_22205_61585# uo_out[1].t0 VGND.t116 sg13_lv_nmos ad=0.2516p pd=2.16u as=0.1406p ps=1.12u w=0.74u l=0.13u
X57 a_19681_61717# a_19247_61578# a_19587_61717# VGND.t94 sg13_lv_nmos ad=37.8f pd=0.6u as=0.1428p ps=1.52u w=0.42u l=0.13u
X58 a_17996_61559# a_17067_61366# a_17910_61326# VDPWR.t2 sg13_lv_pmos ad=79.8f pd=0.8u as=0.1428p ps=1.52u w=0.42u l=0.13u
X59 a_19955_61640# a_20086_61250# a_19247_61578# VDPWR.t2 sg13_lv_pmos ad=0.34p pd=2.68u as=0.19115p ps=1.565u w=1u l=0.13u
X60 a_20986_61326# a_20086_61250# a_20876_61559# VDPWR.t2 sg13_lv_pmos ad=54.6f pd=0.68u as=79.8f ps=0.8u w=0.42u l=0.13u
X61 VDPWR.t12 freq_divider_0.sg13g2_dfrbp_2_0.RESET_B a_16707_61717# VDPWR.t2 sg13_lv_pmos ad=1.4373p pd=8.805u as=79.8f ps=0.8u w=0.42u l=0.13u
X62 a_24140_61559# a_23211_61366# a_24054_61326# VDPWR.t2 sg13_lv_pmos ad=79.8f pd=0.8u as=0.1428p ps=1.52u w=0.42u l=0.13u
X63 a_17067_61366# a_17206_61250# VDPWR.t12 VDPWR.t2 sg13_lv_pmos ad=0.3864p pd=2.93u as=1.55707p ps=9.54u w=1.12u l=0.13u
X64 VDPWR.t11 freq_divider_0.sg13g2_dfrbp_2_0.RESET_B a_22851_61717# VDPWR.t2 sg13_lv_pmos ad=1.4373p pd=8.805u as=79.8f ps=0.8u w=0.42u l=0.13u
X65 a_17067_61366# a_17206_61250# VGND.t99 VGND.t98 sg13_lv_nmos ad=0.2516p pd=2.16u as=2.07232p ps=13.14u w=0.74u l=0.13u
X66 VDPWR.t45 freq_divider_0.sg13g2_dfrbp_2_0.D a_17910_61326# VDPWR.t2 sg13_lv_pmos ad=0.1428p pd=1.52u as=79.8f ps=0.8u w=0.42u l=0.13u
X67 freq_divider_0.sg13g2_dfrbp_2_1.D a_19247_61578# VGND.t90 VGND.t93 sg13_lv_nmos ad=0.1406p pd=1.12u as=0.1331p ps=1.12u w=0.74u l=0.13u
X68 a_21132_61704# a_19955_61640# a_20747_61559# VGND.t36 sg13_lv_nmos ad=38.85f pd=0.605u as=0.1596p ps=1.6u w=0.42u l=0.13u
X69 a_17910_61326# a_17206_61250# a_17996_61559# VGND.t114 sg13_lv_nmos ad=0.1296p pd=1.52u as=81f ps=0.81u w=0.42u l=0.13u
X70 a_19845_61717# a_20086_61250# a_19247_61578# VGND.t88 sg13_lv_nmos ad=0.1428p pd=1.52u as=0.12665p ps=1.145u w=0.42u l=0.13u
X71 a_16965_61717# a_16707_61717# VGND.t26 VGND.t25 sg13_lv_nmos ad=0.1428p pd=1.52u as=79.8f ps=0.8u w=0.42u l=0.13u
X72 a_19897_61402# a_19587_61717# VDPWR.t12 VDPWR.t2 sg13_lv_pmos ad=52.5f pd=0.67u as=1.55707p ps=9.54u w=0.42u l=0.13u
X73 a_20790_61326# a_20086_61250# a_20876_61559# VGND.t87 sg13_lv_nmos ad=0.1296p pd=1.52u as=81f ps=0.81u w=0.42u l=0.13u
X74 a_18252_61704# a_17075_61640# a_17867_61559# VGND.t74 sg13_lv_nmos ad=38.85f pd=0.605u as=0.1596p ps=1.6u w=0.42u l=0.13u
X75 VGND.t92 a_19247_61578# freq_divider_0.sg13g2_dfrbp_2_1.D VGND.t91 sg13_lv_nmos ad=0.2516p pd=2.16u as=0.1406p ps=1.12u w=0.74u l=0.13u
X76 VGND.t59 a_18941_61585# uo_out[2].t1 VGND.t58 sg13_lv_nmos ad=0.2516p pd=2.16u as=0.1406p ps=1.12u w=0.74u l=0.13u
X77 a_24140_61559# a_23211_61366# a_24011_61559# VGND.t71 sg13_lv_nmos ad=81f pd=0.81u as=0.2163p ps=1.87u w=0.42u l=0.13u
X78 a_16965_61717# a_17206_61250# a_16367_61578# VGND.t113 sg13_lv_nmos ad=0.1428p pd=1.52u as=0.12665p ps=1.145u w=0.42u l=0.13u
X79 VGND.t90 a_19247_61578# a_18941_61585# VGND.t89 sg13_lv_nmos ad=0.1331p pd=1.12u as=0.2176p ps=1.96u w=0.64u l=0.13u
X80 a_17996_61559# freq_divider_0.sg13g2_dfrbp_2_0.RESET_B VDPWR.t13 VDPWR.t2 sg13_lv_pmos ad=0.147p pd=1.54u as=0.1563p ps=1.22u w=0.42u l=0.13u
X81 VDPWR.t19 a_19955_61640# a_20986_61326# VDPWR.t2 sg13_lv_pmos ad=0.1563p pd=1.22u as=54.6f ps=0.68u w=0.42u l=0.13u
X82 a_20790_61326# freq_divider_0.sg13g2_dfrbp_2_1.D a_21529_61717# VGND.t52 sg13_lv_nmos ad=0.1428p pd=1.52u as=60.89999f ps=0.71u w=0.42u l=0.13u
X83 VDPWR.t20 a_17996_61559# a_17075_61640# VDPWR.t2 sg13_lv_pmos ad=0.36237p pd=2.605u as=0.34p ps=2.68u w=1u l=0.13u
X84 VGND.t56 ring_0/inverter_ring_0/skullfet_inverter_0.Y ring_0/inverter_ring_0/skullfet_inverter_19.A VGND.t55 sg13_lv_nmos ad=4.2687p pd=10.82u as=6.4314p ps=26.72u w=4.05u l=0.4u
X85 a_24140_61559# freq_divider_0.sg13g2_dfrbp_2_0.RESET_B VDPWR.t15 VDPWR.t2 sg13_lv_pmos ad=0.147p pd=1.54u as=0.1563p ps=1.22u w=0.42u l=0.13u
X86 ring_0/inverter_ring_0/skullfet_inverter_5.A ring_0/inverter_ring_0/skullfet_inverter_6.A VDPWR.t10 VDPWR.t9 sg13_lv_pmos ad=6.2694p pd=26.64u as=4.4307p ps=10.9u w=4.05u l=0.4u
X87 VDPWR.t69 a_19247_61578# freq_divider_0.sg13g2_dfrbp_2_1.D VDPWR.t2 sg13_lv_pmos ad=0.2014p pd=1.53u as=0.2128p ps=1.5u w=1.12u l=0.13u
X88 VGND.t63 ring_0/inverter_ring_0/skullfet_inverter_8.A ring_0/inverter_ring_0/skullfet_inverter_7.A VGND.t62 sg13_lv_nmos ad=4.2687p pd=10.82u as=6.4314p ps=26.72u w=4.05u l=0.4u
X89 VDPWR.t11 uo_out[1].t2 a_20086_61250# VDPWR.t2 sg13_lv_pmos ad=1.55707p pd=9.54u as=0.3808p ps=2.92u w=1.12u l=0.13u
X90 VDPWR.t18 a_24140_61559# a_23219_61640# VDPWR.t2 sg13_lv_pmos ad=0.36237p pd=2.605u as=0.34p ps=2.68u w=1u l=0.13u
X91 a_23219_61640# a_23350_61250# a_22511_61578# VDPWR.t2 sg13_lv_pmos ad=0.34p pd=2.68u as=0.19115p ps=1.565u w=1u l=0.13u
X92 VDPWR.t13 a_17075_61640# a_18106_61326# VDPWR.t2 sg13_lv_pmos ad=0.1563p pd=1.22u as=54.6f ps=0.68u w=0.42u l=0.13u
X93 a_19587_61717# a_19247_61578# VDPWR.t69 VDPWR.t2 sg13_lv_pmos ad=79.8f pd=0.8u as=0.2014p ps=1.53u w=0.42u l=0.13u
X94 VGND.t5 ring_0/inverter_ring_0/skullfet_inverter_1.A ring_0/inverter_ring_0/skullfet_inverter_0.A VGND.t4 sg13_lv_nmos ad=4.2687p pd=10.82u as=6.4314p ps=26.72u w=4.05u l=0.4u
X95 ring_0/inverter_ring_0/skullfet_inverter_10.A ring_0/inverter_ring_0/skullfet_inverter_11.A VDPWR.t56 VDPWR.t55 sg13_lv_pmos ad=6.2694p pd=26.64u as=4.4307p ps=10.9u w=4.05u l=0.4u
X96 VDPWR.t86 a_22205_61585# uo_out[1].t1 VDPWR.t2 sg13_lv_pmos ad=0.3808p pd=2.92u as=0.2156p ps=1.505u w=1.12u l=0.13u
X97 VDPWR.t12 uo_out[2].t2 a_17206_61250# VDPWR.t2 sg13_lv_pmos ad=1.55707p pd=9.54u as=0.3808p ps=2.92u w=1.12u l=0.13u
X98 VGND.t1 ring_0/inverter_ring_0/skullfet_inverter_12.A ring_0/inverter_ring_0/skullfet_inverter_11.A VGND.t0 sg13_lv_nmos ad=4.2687p pd=10.82u as=6.4314p ps=26.72u w=4.05u l=0.4u
X99 a_23109_61717# a_23350_61250# a_22511_61578# VGND.t121 sg13_lv_nmos ad=0.1428p pd=1.52u as=0.12665p ps=1.145u w=0.42u l=0.13u
X100 ring_0/inverter_ring_0/skullfet_inverter_0.A ring_0/inverter_ring_0/skullfet_inverter_1.A VDPWR.t4 VDPWR.t3 sg13_lv_pmos ad=6.2694p pd=26.64u as=4.4307p ps=10.9u w=4.05u l=0.4u
X101 ring_0/inverter_ring_0/skullfet_inverter_16.A ring_0/inverter_ring_0/skullfet_inverter_17.A VDPWR.t42 VDPWR.t41 sg13_lv_pmos ad=6.2694p pd=26.64u as=4.4307p ps=10.9u w=4.05u l=0.4u
X102 a_21980_61316# a_21980_61316# VGND.t86 VGND.t95 sg13_lv_nmos ad=0.111p pd=1.34u as=2.07232p ps=13.14u w=0.3u l=0.13u
X103 VGND.t22 freq_divider_0.sg13g2_dfrbp_2_0.RESET_B a_19681_61717# VGND.t21 sg13_lv_nmos ad=79.8f pd=0.8u as=37.8f ps=0.6u w=0.42u l=0.13u
X104 ring_0/inverter_ring_0/skullfet_inverter_2.A ring_0/inverter_ring_0/skullfet_inverter_3.A VDPWR.t31 VDPWR.t30 sg13_lv_pmos ad=6.2694p pd=26.64u as=4.4307p ps=10.9u w=4.05u l=0.4u
X105 uo_out[0].t0 ring_0/inverter_ring_0/skullfet_inverter_16.A VDPWR.t89 VDPWR.t88 sg13_lv_pmos ad=6.2694p pd=26.64u as=4.4307p ps=10.9u w=4.05u l=0.4u
X106 a_21529_61717# freq_divider_0.sg13g2_dfrbp_2_0.RESET_B VGND.t20 VGND.t19 sg13_lv_nmos ad=60.89999f pd=0.71u as=0.1626p ps=1.415u w=0.42u l=0.13u
X107 VGND.t20 a_20876_61559# a_19955_61640# VGND.t31 sg13_lv_nmos ad=0.1626p pd=1.415u as=0.2516p ps=2.16u w=0.74u l=0.13u
X108 uo_out[3].t1 a_16061_61585# VGND.t50 VGND.t49 sg13_lv_nmos ad=0.1406p pd=1.12u as=0.2516p ps=2.16u w=0.74u l=0.13u
X109 VGND.t86 uo_out[1].t2 a_20086_61250# VGND.t85 sg13_lv_nmos ad=2.07232p pd=13.14u as=0.2516p ps=2.16u w=0.74u l=0.13u
X110 VGND.t86 a_21856_61617# a_21777_61520# VGND.t104 sg13_lv_nmos ad=2.07232p pd=13.14u as=0.27427p ps=2.28u w=0.795u l=0.13u
X111 a_16367_61578# a_17067_61366# a_17017_61402# VDPWR.t2 sg13_lv_pmos ad=0.19115p pd=1.565u as=52.5f ps=0.67u w=0.42u l=0.13u
X112 ring_0/inverter_ring_0/skullfet_inverter_14.A uo_out[0].t2 VDPWR.t77 VDPWR.t76 sg13_lv_pmos ad=6.2694p pd=26.64u as=4.4307p ps=10.9u w=4.05u l=0.4u
X113 VGND.t9 ring_0/inverter_ring_0/skullfet_inverter_4.A ring_0/inverter_ring_0/skullfet_inverter_3.A VGND.t8 sg13_lv_nmos ad=4.2687p pd=10.82u as=6.4314p ps=26.72u w=4.05u l=0.4u
X114 VDPWR.t15 a_23219_61640# a_24250_61326# VDPWR.t2 sg13_lv_pmos ad=0.1563p pd=1.22u as=54.6f ps=0.68u w=0.42u l=0.13u
X115 a_24250_61326# a_23350_61250# a_24140_61559# VDPWR.t2 sg13_lv_pmos ad=54.6f pd=0.68u as=79.8f ps=0.8u w=0.42u l=0.13u
X116 a_20790_61326# freq_divider_0.sg13g2_dfrbp_2_0.RESET_B VDPWR.t14 VDPWR.t2 sg13_lv_pmos ad=79.8f pd=0.8u as=0.36237p ps=2.605u w=0.42u l=0.13u
X117 a_24054_61326# freq_divider_0.sg13g2_dfrbp_2_2.D a_24793_61717# VGND.t44 sg13_lv_nmos ad=0.1428p pd=1.52u as=60.89999f ps=0.71u w=0.42u l=0.13u
X118 a_22511_61578# a_23211_61366# a_23219_61640# VGND.t70 sg13_lv_nmos ad=0.12665p pd=1.145u as=0.3473p ps=2.71u w=0.74u l=0.13u
X119 a_18649_61717# freq_divider_0.sg13g2_dfrbp_2_0.RESET_B VGND.t18 VGND.t17 sg13_lv_nmos ad=60.89999f pd=0.71u as=0.1626p ps=1.415u w=0.42u l=0.13u
X120 freq_divider_0.sg13g2_dfrbp_2_0.D a_16367_61578# VDPWR.t50 VDPWR.t2 sg13_lv_pmos ad=0.2128p pd=1.5u as=0.2083p ps=1.5u w=1.12u l=0.13u
X121 VGND.t99 uo_out[2].t2 a_17206_61250# VGND.t98 sg13_lv_nmos ad=2.07232p pd=13.14u as=0.2516p ps=2.16u w=0.74u l=0.13u
X122 VDPWR.t68 a_19247_61578# a_18941_61585# VDPWR.t2 sg13_lv_pmos ad=0.2083p pd=1.5u as=0.34p ps=2.68u w=1u l=0.13u
X123 VGND.t39 ring_0/inverter_ring_0/skullfet_inverter_7.A ring_0/inverter_ring_0/skullfet_inverter_6.A VGND.t38 sg13_lv_nmos ad=4.2687p pd=10.82u as=6.4314p ps=26.72u w=4.05u l=0.4u
X124 a_24793_61717# freq_divider_0.sg13g2_dfrbp_2_0.RESET_B VGND.t16 VGND.t15 sg13_lv_nmos ad=60.89999f pd=0.71u as=0.1626p ps=1.415u w=0.42u l=0.13u
X125 a_17075_61640# a_17206_61250# a_16367_61578# VDPWR.t2 sg13_lv_pmos ad=0.34p pd=2.68u as=0.19115p ps=1.565u w=1u l=0.13u
X126 uo_out[3].t0 a_16061_61585# VDPWR.t38 VDPWR.t2 sg13_lv_pmos ad=0.2156p pd=1.505u as=0.3808p ps=2.92u w=1.12u l=0.13u
X127 a_24054_61326# a_23350_61250# a_24140_61559# VGND.t120 sg13_lv_nmos ad=0.1296p pd=1.52u as=81f ps=0.81u w=0.42u l=0.13u
X128 VDPWR.t37 a_16061_61585# uo_out[3].t0 VDPWR.t2 sg13_lv_pmos ad=0.3808p pd=2.92u as=0.2156p ps=1.505u w=1.12u l=0.13u
X129 a_22511_61578# a_23211_61366# a_23161_61402# VDPWR.t2 sg13_lv_pmos ad=0.19115p pd=1.565u as=52.5f ps=0.67u w=0.42u l=0.13u
X130 ring_0/inverter_ring_0/skullfet_inverter_8.A ring_0/inverter_ring_0/skullfet_inverter_9.A VDPWR.t82 VDPWR.t81 sg13_lv_pmos ad=6.2694p pd=26.64u as=4.4307p ps=10.9u w=4.05u l=0.4u
X131 uo_out[1].t1 a_22205_61585# VDPWR.t85 VDPWR.t2 sg13_lv_pmos ad=0.2156p pd=1.505u as=0.3808p ps=2.92u w=1.12u l=0.13u
X132 ring_0/inverter_ring_0/skullfet_inverter_7.A ring_0/inverter_ring_0/skullfet_inverter_8.A VDPWR.t49 VDPWR.t48 sg13_lv_pmos ad=6.2694p pd=26.64u as=4.4307p ps=10.9u w=4.05u l=0.4u
X133 VGND.t46 ring_0/inverter_ring_0/skullfet_inverter_10.A ring_0/inverter_ring_0/skullfet_inverter_9.A VGND.t45 sg13_lv_nmos ad=4.2687p pd=10.82u as=6.4314p ps=26.72u w=4.05u l=0.4u
X134 VGND.t16 a_24140_61559# a_23219_61640# VGND.t51 sg13_lv_nmos ad=0.1626p pd=1.415u as=0.2516p ps=2.16u w=0.74u l=0.13u
X135 VGND.t103 uo_out[0].t3 a_23350_61250# VGND.t102 sg13_lv_nmos ad=2.07232p pd=13.14u as=0.2516p ps=2.16u w=0.74u l=0.13u
X136 freq_divider_0.sg13g2_dfrbp_2_2.D a_22511_61578# VDPWR.t63 VDPWR.t2 sg13_lv_pmos ad=0.2128p pd=1.5u as=0.2083p ps=1.5u w=1.12u l=0.13u
X137 a_16801_61717# a_16367_61578# a_16707_61717# VGND.t69 sg13_lv_nmos ad=37.8f pd=0.6u as=0.1428p ps=1.52u w=0.42u l=0.13u
X138 a_19247_61578# a_19947_61366# a_19955_61640# VGND.t105 sg13_lv_nmos ad=0.12665p pd=1.145u as=0.3473p ps=2.71u w=0.74u l=0.13u
X139 ring_0/inverter_ring_0/skullfet_inverter_1.A ring_0/inverter_ring_0/skullfet_inverter_2.A VDPWR.t23 VDPWR.t22 sg13_lv_pmos ad=6.2694p pd=26.64u as=4.4307p ps=10.9u w=4.05u l=0.4u
X140 ring_0/inverter_ring_0/skullfet_inverter_13.A ring_0/inverter_ring_0/skullfet_inverter_14.A VDPWR.t6 VDPWR.t5 sg13_lv_pmos ad=6.2694p pd=26.64u as=4.4307p ps=10.9u w=4.05u l=0.4u
X141 VDPWR.t12 freq_divider_0.sg13g2_dfrbp_2_0.RESET_B a_19587_61717# VDPWR.t2 sg13_lv_pmos ad=1.4373p pd=8.805u as=79.8f ps=0.8u w=0.42u l=0.13u
X142 ring_0/inverter_ring_0/skullfet_inverter_0.Y ring_0/inverter_ring_0/skullfet_inverter_0.A VDPWR.t80 VDPWR.t79 sg13_lv_pmos ad=6.2694p pd=26.64u as=4.4307p ps=10.9u w=4.05u l=0.4u
X143 freq_divider_0.sg13g2_dfrbp_2_0.D a_16367_61578# VGND.t65 VGND.t68 sg13_lv_nmos ad=0.1406p pd=1.12u as=0.1331p ps=1.12u w=0.74u l=0.13u
X144 a_17910_61326# freq_divider_0.sg13g2_dfrbp_2_0.D a_18649_61717# VGND.t57 sg13_lv_nmos ad=0.1428p pd=1.52u as=60.89999f ps=0.71u w=0.42u l=0.13u
X145 a_16367_61578# a_17067_61366# a_17075_61640# VGND.t2 sg13_lv_nmos ad=0.12665p pd=1.145u as=0.3473p ps=2.71u w=0.74u l=0.13u
X146 VGND.t13 freq_divider_0.sg13g2_dfrbp_2_0.RESET_B a_22945_61717# VGND.t12 sg13_lv_nmos ad=79.8f pd=0.8u as=37.8f ps=0.6u w=0.42u l=0.13u
X147 a_17017_61402# a_16707_61717# VDPWR.t12 VDPWR.t2 sg13_lv_pmos ad=52.5f pd=0.67u as=1.55707p ps=9.54u w=0.42u l=0.13u
X148 VGND.t76 ring_0/inverter_ring_0/skullfet_inverter_18.A ring_0/inverter_ring_0/skullfet_inverter_17.A VGND.t75 sg13_lv_nmos ad=4.2687p pd=10.82u as=6.4314p ps=26.72u w=4.05u l=0.4u
X149 VGND.t67 a_16367_61578# freq_divider_0.sg13g2_dfrbp_2_0.D VGND.t66 sg13_lv_nmos ad=0.2516p pd=2.16u as=0.1406p ps=1.12u w=0.74u l=0.13u
X150 VGND.t11 ring_0/inverter_ring_0/skullfet_inverter_6.A ring_0/inverter_ring_0/skullfet_inverter_5.A VGND.t10 sg13_lv_nmos ad=4.2687p pd=10.82u as=6.4314p ps=26.72u w=4.05u l=0.4u
X151 VGND.t48 a_16061_61585# uo_out[3].t1 VGND.t47 sg13_lv_nmos ad=0.2516p pd=2.16u as=0.1406p ps=1.12u w=0.74u l=0.13u
X152 a_19845_61717# a_19587_61717# VGND.t22 VGND.t21 sg13_lv_nmos ad=0.1428p pd=1.52u as=79.8f ps=0.8u w=0.42u l=0.13u
X153 VGND.t35 ring_0/inverter_ring_0/skullfet_inverter_5.A ring_0/inverter_ring_0/skullfet_inverter_4.A VGND.t34 sg13_lv_nmos ad=4.2687p pd=10.82u as=6.4314p ps=26.72u w=4.05u l=0.4u
X154 VGND.t65 a_16367_61578# a_16061_61585# VGND.t64 sg13_lv_nmos ad=0.1331p pd=1.12u as=0.2176p ps=1.96u w=0.64u l=0.13u
X155 VDPWR.t11 uo_out[0].t3 a_23350_61250# VDPWR.t2 sg13_lv_pmos ad=1.55707p pd=9.54u as=0.3808p ps=2.92u w=1.12u l=0.13u
X156 a_19947_61366# a_20086_61250# VGND.t86 VGND.t85 sg13_lv_nmos ad=0.2516p pd=2.16u as=2.07232p ps=13.14u w=0.74u l=0.13u
X157 VGND.t78 ring_0/inverter_ring_0/skullfet_inverter_19.A ring_0/inverter_ring_0/skullfet_inverter_18.A VGND.t77 sg13_lv_nmos ad=4.2687p pd=10.82u as=6.4314p ps=26.72u w=4.05u l=0.4u
X158 VDPWR.t40 freq_divider_0.sg13g2_dfrbp_2_1.D a_20790_61326# VDPWR.t2 sg13_lv_pmos ad=0.1428p pd=1.52u as=79.8f ps=0.8u w=0.42u l=0.13u
X159 freq_divider_0.sg13g2_dfrbp_2_2.D a_22511_61578# VGND.t80 VGND.t79 sg13_lv_nmos ad=0.1406p pd=1.12u as=0.1331p ps=1.12u w=0.74u l=0.13u
R0 VGND.n202 VGND.n59 36337.9
R1 VGND.n210 VGND.n111 26006.8
R2 VGND.n345 VGND.n111 20289.4
R3 VGND.t8 VGND.n160 19416.2
R4 VGND.n468 VGND.n467 17662.9
R5 VGND.n194 VGND.n70 15262.5
R6 VGND.n202 VGND.n111 12285.4
R7 VGND.n61 VGND.n59 12285.4
R8 VGND.n467 VGND.n466 12279.6
R9 VGND.n200 VGND.t10 12039.2
R10 VGND.t38 VGND.n63 10402.1
R11 VGND.n281 VGND.n274 10052.7
R12 VGND.n469 VGND.n468 10011.4
R13 VGND.n159 VGND.n158 9840.79
R14 VGND.n201 VGND.n61 9066.9
R15 VGND.n265 VGND.n200 7844.55
R16 VGND.n210 VGND.n204 7498.6
R17 VGND.n199 VGND.n198 7474.99
R18 VGND.n158 VGND.n155 7291.79
R19 VGND.n194 VGND.t34 7169.54
R20 VGND.n472 VGND.n65 6899.39
R21 VGND.n476 VGND.n60 6851.13
R22 VGND.n69 VGND.n65 6429.23
R23 VGND.n265 VGND.t40 6051.63
R24 VGND.n203 VGND.n202 6014.02
R25 VGND.n466 VGND.n465 5872.62
R26 VGND.n204 VGND.n203 5699.78
R27 VGND.n466 VGND.n69 5321.16
R28 VGND.n195 VGND.n194 5298.87
R29 VGND.n478 VGND.n477 4953.11
R30 VGND.n468 VGND.n69 4950.06
R31 VGND.n264 VGND.n263 4945.91
R32 VGND.n291 VGND.n155 3511.45
R33 VGND.n158 VGND.n157 3475.34
R34 VGND.n276 VGND.n271 3284.18
R35 VGND.n466 VGND.n71 3154.9
R36 VGND.n200 VGND.n199 3153.12
R37 VGND.n282 VGND.n281 2376.2
R38 VGND.n265 VGND.n157 2220.92
R39 VGND.n470 VGND.n469 2091.57
R40 VGND.n474 VGND.n63 1946.24
R41 VGND.n203 VGND.n201 1880.71
R42 VGND.n160 VGND.n70 1835.32
R43 VGND.n74 VGND.n71 1763.01
R44 VGND.n265 VGND.n201 1734.38
R45 VGND.n200 VGND.n63 1470.05
R46 VGND.n283 VGND.t108 1368.89
R47 VGND.t77 VGND.n276 1347.06
R48 VGND.n276 VGND.t55 1194.61
R49 VGND.t34 VGND.n193 1123.79
R50 VGND.n467 VGND.n70 1061.65
R51 VGND.n283 VGND.n271 977.779
R52 VGND.n60 VGND.t42 964.287
R53 VGND.n265 VGND.n159 905.553
R54 VGND.t42 VGND.n59 876.317
R55 VGND.n476 VGND.n61 837.723
R56 VGND.n275 VGND.n155 814.62
R57 VGND.n237 VGND.n234 744.615
R58 VGND.n486 VGND.n5 744.615
R59 VGND.n53 VGND.n52 744.615
R60 VGND.n209 VGND.t100 675.663
R61 VGND.n198 VGND.t40 656.004
R62 VGND.n465 VGND.t10 656.004
R63 VGND.n199 VGND.t8 615.229
R64 VGND.n159 VGND.n154 608.424
R65 VGND.n346 VGND.n59 575.212
R66 VGND.n199 VGND.n195 498.868
R67 VGND.n237 VGND.t12 480
R68 VGND.n486 VGND.t21 480
R69 VGND.n52 VGND.t25 480
R70 VGND.n471 VGND.t110 455.887
R71 VGND.n74 VGND.t38 427.755
R72 VGND.n265 VGND.n264 402.269
R73 VGND.n477 VGND.n476 395.865
R74 VGND.n265 VGND.n204 392.892
R75 VGND.t6 VGND.n345 372.399
R76 VGND.n282 VGND.n271 344.149
R77 VGND.t55 VGND.n274 335.173
R78 VGND.n68 VGND.t110 330.428
R79 VGND.n291 VGND.t53 318.406
R80 VGND.n345 VGND.n344 307.757
R81 VGND.n160 VGND.n157 278.079
R82 VGND.n233 VGND.t81 260.005
R83 VGND.n16 VGND.t91 260.005
R84 VGND.t66 VGND.n54 260.005
R85 VGND.t79 VGND.n231 234.738
R86 VGND.t93 VGND.n14 234.738
R87 VGND.n56 VGND.t68 234.738
R88 VGND.n244 VGND.t84 232.869
R89 VGND.n25 VGND.t89 232.869
R90 VGND.t64 VGND.n43 232.869
R91 VGND.t32 VGND.n154 231.615
R92 VGND.t104 VGND.n228 228.233
R93 VGND.n275 VGND.t4 227.947
R94 VGND.n201 VGND.n63 226.054
R95 VGND.n251 VGND.t31 200.339
R96 VGND.n31 VGND.t37 200.339
R97 VGND.n215 VGND.t51 200.339
R98 VGND.n249 VGND.t52 195.942
R99 VGND.n12 VGND.t57 194.969
R100 VGND.n475 VGND.n474 194.851
R101 VGND.n248 VGND.t116 185.124
R102 VGND.n29 VGND.t58 185.124
R103 VGND.t47 VGND.n41 185.124
R104 VGND.t118 VGND.n229 184.825
R105 VGND.t60 VGND.n12 184.825
R106 VGND.n263 VGND.t44 180.052
R107 VGND.n229 VGND.t95 172.145
R108 VGND.n478 VGND.t49 169.907
R109 VGND.n281 VGND.t75 164.255
R110 VGND.t36 VGND.t29 159.763
R111 VGND.t74 VGND.t27 159.763
R112 VGND.t97 VGND.t23 159.763
R113 VGND.t106 VGND.n224 156.929
R114 VGND.t3 VGND.n9 156.929
R115 VGND.t71 VGND.n212 156.929
R116 VGND.n255 VGND.t87 154.614
R117 VGND.n35 VGND.t114 154.614
R118 VGND.n218 VGND.t120 154.614
R119 VGND.n71 VGND.n65 151.276
R120 VGND.t19 VGND.n226 149.62
R121 VGND.t17 VGND.n11 149.62
R122 VGND.t15 VGND.n214 149.62
R123 VGND.t12 VGND.t70 138.463
R124 VGND.t21 VGND.t105 138.463
R125 VGND.t25 VGND.t2 138.463
R126 VGND.n264 VGND.t123 132.323
R127 VGND.n474 VGND.t62 128.216
R128 VGND.n477 VGND.n59 122.921
R129 VGND.t108 VGND.n282 113.026
R130 VGND.n234 VGND.t83 110.237
R131 VGND.t94 VGND.n5 110.237
R132 VGND.t69 VGND.n53 110.237
R133 VGND.n224 VGND.n5 106.212
R134 VGND.n53 VGND.n9 106.212
R135 VGND.n234 VGND.n212 106.212
R136 VGND.t87 VGND.n254 100.478
R137 VGND.t114 VGND.n34 100.478
R138 VGND.t120 VGND.n217 100.478
R139 VGND.n255 VGND.t106 99.7516
R140 VGND.n35 VGND.t3 99.7516
R141 VGND.n218 VGND.t71 99.7516
R142 VGND.n469 VGND.n68 95.8456
R143 VGND.t62 VGND.n473 95.5275
R144 VGND.n251 VGND.t19 93.8297
R145 VGND.n31 VGND.t17 93.8297
R146 VGND.n215 VGND.t15 93.8297
R147 VGND.t95 VGND.n228 86.222
R148 VGND.n291 VGND.n154 84.6642
R149 VGND.n473 VGND.n472 83.8532
R150 VGND.n254 VGND.t36 75.5501
R151 VGND.n34 VGND.t74 75.5501
R152 VGND.n217 VGND.t97 75.5501
R153 VGND.t102 VGND.t121 73.8467
R154 VGND.t85 VGND.t88 73.8467
R155 VGND.t98 VGND.t113 73.8467
R156 VGND.n248 VGND.t118 73.5423
R157 VGND.n29 VGND.t60 73.5423
R158 VGND.t49 VGND.n41 73.5423
R159 VGND.t116 VGND.n244 73.244
R160 VGND.t58 VGND.n25 73.244
R161 VGND.n43 VGND.t47 73.244
R162 VGND.n290 VGND.t4 72.396
R163 VGND.n344 VGND.t100 65.0575
R164 VGND.n346 VGND.t6 63.8663
R165 VGND.n476 VGND.t0 63.5677
R166 VGND.t52 VGND.n226 63.3986
R167 VGND.t57 VGND.n11 63.3986
R168 VGND.n214 VGND.t44 63.3986
R169 VGND.t51 VGND.n213 59.0031
R170 VGND.t31 VGND.n225 59.0031
R171 VGND.t37 VGND.n10 59.0031
R172 VGND.n474 VGND.t72 55.0827
R173 VGND.n266 VGND.t32 51.425
R174 VGND.n206 VGND.t53 51.1311
R175 VGND.t83 VGND.n233 48.4827
R176 VGND.n16 VGND.t94 48.4827
R177 VGND.n54 VGND.t69 48.4827
R178 VGND.t0 VGND.n475 47.9255
R179 VGND.n471 VGND.t45 47.7166
R180 VGND.n471 VGND.n66 44.7738
R181 VGND.n292 VGND.t75 44.7032
R182 VGND.t123 VGND.n210 42.4247
R183 VGND.n66 VGND.t72 41.6077
R184 VGND.n280 VGND.t77 38.7252
R185 VGND.t29 VGND.n225 38.7147
R186 VGND.t27 VGND.n10 38.7147
R187 VGND.t23 VGND.n213 38.7147
R188 VGND.n281 VGND.n275 36.6123
R189 VGND.t45 VGND.n470 36.1063
R190 VGND.n249 VGND.t104 31.1079
R191 VGND.t84 VGND.n231 28.3754
R192 VGND.t89 VGND.n14 28.3754
R193 VGND.n56 VGND.t64 28.3754
R194 VGND.n232 VGND.t79 27.8464
R195 VGND.n15 VGND.t93 27.8464
R196 VGND.t68 VGND.n55 27.8464
R197 VGND.t70 VGND.t102 24.6159
R198 VGND.t105 VGND.t85 24.6159
R199 VGND.t2 VGND.t98 24.6159
R200 VGND.n291 VGND.n290 22.6588
R201 VGND.n210 VGND.n209 22.6333
R202 VGND.n472 VGND.n471 18.8055
R203 VGND.n289 VGND.n288 18.1658
R204 VGND.n268 VGND.n267 18.1658
R205 VGND.n88 VGND.n62 18.1658
R206 VGND.n393 VGND.n392 18.1658
R207 VGND.n77 VGND.n64 18.1658
R208 VGND.n76 VGND.n75 18.1658
R209 VGND.n464 VGND.n463 18.1658
R210 VGND.n193 VGND.n192 18.1658