* NGSPICE file created from tt_um_oscillating_bones.ext - technology: ihp-sg13g2

.subckt tt_um_oscillating_bones ena clk rst_n ui_in[0] ui_in[1] ui_in[2] ui_in[3]
+ ui_in[4] ui_in[5] ui_in[6] ui_in[7] uio_in[0] uio_in[1] uio_in[2] uio_in[3] uio_in[4]
+ uio_in[5] uio_in[6] uio_in[7] uo_out[0] uo_out[1] uo_out[2] uo_out[3] uo_out[4]
+ uo_out[5] uo_out[6] uo_out[7] uio_out[0] uio_out[1] uio_out[2] uio_out[3] uio_out[4]
+ uio_out[5] uio_out[6] uio_out[7] uio_oe[0] uio_oe[1] uio_oe[2] uio_oe[3] uio_oe[4]
+ uio_oe[5] uio_oe[6] uio_oe[7] VGND VDPWR
X0 uo_out[1].t0 a_22205_61585# VGND.t31 VGND.t30 sg13_lv_nmos ad=0.1406p pd=1.12u as=0.2516p ps=2.16u w=0.74u l=0.13u
X1 VDPWR.t40 a_16367_61578# freq_divider_0.sg13g2_dfrbp_2_0.D VDPWR.t0 sg13_lv_pmos ad=0.2014p pd=1.53u as=0.2128p ps=1.5u w=1.12u l=0.13u
X2 VGND.t38 a_17996_61559# a_17075_61640# VGND.t105 sg13_lv_nmos ad=0.1626p pd=1.415u as=0.2516p ps=2.16u w=0.74u l=0.13u
X3 VGND.t50 freq_divider_0.sg13g2_dfrbp_2_0.RESET_B a_21132_61704# VGND.t49 sg13_lv_nmos ad=0.1701p pd=1.65u as=38.85f ps=0.605u w=0.42u l=0.13u
X4 a_16707_61717# a_16367_61578# VDPWR.t40 VDPWR.t0 sg13_lv_pmos ad=79.8f pd=0.8u as=0.2014p ps=1.53u w=0.42u l=0.13u
X5 a_17910_61326# freq_divider_0.sg13g2_dfrbp_2_0.RESET_B VDPWR.t28 VDPWR.t0 sg13_lv_pmos ad=79.8f pd=0.8u as=0.36237p ps=2.605u w=0.42u l=0.13u
X6 a_20876_61559# freq_divider_0.sg13g2_dfrbp_2_0.RESET_B VDPWR.t27 VDPWR.t0 sg13_lv_pmos ad=0.147p pd=1.54u as=0.1563p ps=1.22u w=0.42u l=0.13u
X7 ring_0/inverter_ring_0/skullfet_inverter_19.A ring_0/inverter_ring_0/skullfet_inverter_0.Y VDPWR.t65 VDPWR.t64 sg13_lv_pmos ad=6.2694p pd=26.64u as=4.4307p ps=10.9u w=4.05u l=0.4u
X8 VGND.t82 a_22511_61578# a_22205_61585# VGND.t86 sg13_lv_nmos ad=0.1331p pd=1.12u as=0.2176p ps=1.96u w=0.64u l=0.13u
X9 VGND.t48 freq_divider_0.sg13g2_dfrbp_2_0.RESET_B a_18252_61704# VGND.t47 sg13_lv_nmos ad=0.1701p pd=1.65u as=38.85f ps=0.605u w=0.42u l=0.13u
X10 ring_0/inverter_ring_0/skullfet_inverter_6.A ring_0/inverter_ring_0/skullfet_inverter_7.A VDPWR.t15 VDPWR.t14 sg13_lv_pmos ad=6.2694p pd=26.64u as=4.4307p ps=10.9u w=4.05u l=0.4u
X11 VGND.t112 ring_0/inverter_ring_0/skullfet_inverter_13.A ring_0/inverter_ring_0/skullfet_inverter_12.A VGND.t111 sg13_lv_nmos ad=4.2687p pd=10.82u as=6.4314p ps=26.72u w=4.05u l=0.4u
X12 VDPWR.t23 a_20876_61559# a_19955_61640# VDPWR.t0 sg13_lv_pmos ad=0.36237p pd=2.605u as=0.34p ps=2.68u w=1u l=0.13u
X13 a_23109_61717# a_22851_61717# VGND.t35 VGND.t34 sg13_lv_nmos ad=0.1428p pd=1.52u as=79.8f ps=0.8u w=0.42u l=0.13u
X14 a_24054_61326# freq_divider_0.sg13g2_dfrbp_2_0.RESET_B VDPWR.t16 VDPWR.t0 sg13_lv_pmos ad=79.8f pd=0.8u as=0.36237p ps=2.605u w=0.42u l=0.13u
X15 VGND.t72 ring_0/inverter_ring_0/skullfet_inverter_17.A ring_0/inverter_ring_0/skullfet_inverter_16.A VGND.t71 sg13_lv_nmos ad=4.2687p pd=10.82u as=6.4314p ps=26.72u w=4.05u l=0.4u
X16 VGND.t46 freq_divider_0.sg13g2_dfrbp_2_0.RESET_B a_16801_61717# VGND.t45 sg13_lv_nmos ad=79.8f pd=0.8u as=37.8f ps=0.6u w=0.42u l=0.13u
X17 a_20876_61559# a_19947_61366# a_20747_61559# VGND.t76 sg13_lv_nmos ad=81f pd=0.81u as=0.2163p ps=1.87u w=0.42u l=0.13u
X18 ring_0/inverter_ring_0/skullfet_inverter_12.A ring_0/inverter_ring_0/skullfet_inverter_13.A VDPWR.t73 VDPWR.t72 sg13_lv_pmos ad=6.2694p pd=26.64u as=4.4307p ps=10.9u w=4.05u l=0.4u
X19 VDPWR.t54 a_22511_61578# freq_divider_0.sg13g2_dfrbp_2_2.D VDPWR.t0 sg13_lv_pmos ad=0.2014p pd=1.53u as=0.2128p ps=1.5u w=1.12u l=0.13u
X20 a_23211_61366# a_23350_61250# a_23663_61281# VDPWR.t0 sg13_lv_pmos ad=0.3864p pd=2.93u as=0.43102p ps=2.145u w=1.12u l=0.13u
X21 a_23211_61366# a_23350_61250# a_23668_61632# VGND.t8 sg13_lv_nmos ad=0.2516p pd=2.16u as=0.43315p ps=2.205u w=0.74u l=0.13u
X22 VGND.t80 ring_0/inverter_ring_0/skullfet_inverter_9.A ring_0/inverter_ring_0/skullfet_inverter_8.A VGND.t79 sg13_lv_nmos ad=4.2687p pd=10.82u as=6.4314p ps=26.72u w=4.05u l=0.4u
X23 ring_0/inverter_ring_0/skullfet_inverter_11.A ring_0/inverter_ring_0/skullfet_inverter_12.A VDPWR.t43 VDPWR.t42 sg13_lv_pmos ad=6.2694p pd=26.64u as=4.4307p ps=10.9u w=4.05u l=0.4u
X24 VDPWR.t66 freq_divider_0.sg13g2_dfrbp_2_2.D a_24054_61326# VDPWR.t0 sg13_lv_pmos ad=0.1428p pd=1.52u as=79.8f ps=0.8u w=0.42u l=0.13u
X25 a_22851_61717# a_22511_61578# VDPWR.t54 VDPWR.t0 sg13_lv_pmos ad=79.8f pd=0.8u as=0.2014p ps=1.53u w=0.42u l=0.13u
X26 a_23161_61402# a_22851_61717# a_23039_61402# VDPWR.t0 sg13_lv_pmos ad=52.5f pd=0.67u as=0.25605p ps=1.935u w=0.42u l=0.13u
X27 VDPWR.t38 a_16367_61578# a_16061_61585# VDPWR.t0 sg13_lv_pmos ad=0.2083p pd=1.5u as=0.34p ps=2.68u w=1u l=0.13u
X28 a_17996_61559# a_17067_61366# a_17867_61559# VGND.t107 sg13_lv_nmos ad=81f pd=0.81u as=0.2163p ps=1.87u w=0.42u l=0.13u
X29 freq_divider_0.sg13g2_dfrbp_2_1.D a_19247_61578# VDPWR.t74 VDPWR.t0 sg13_lv_pmos ad=0.2128p pd=1.5u as=0.2083p ps=1.5u w=1.12u l=0.13u
X30 VDPWR.t3 a_21777_61520# freq_divider_0.sg13g2_dfrbp_2_0.RESET_B VDPWR.t0 sg13_lv_pmos ad=0.4657p pd=2.54u as=0.3927p ps=2.99u w=1.155u l=0.13u
X31 a_22945_61717# a_22511_61578# a_22851_61717# VGND.t85 sg13_lv_nmos ad=37.8f pd=0.6u as=0.1428p ps=1.52u w=0.42u l=0.13u
X32 VGND.t44 freq_divider_0.sg13g2_dfrbp_2_0.RESET_B a_24396_61704# VGND.t43 sg13_lv_nmos ad=0.1701p pd=1.65u as=38.85f ps=0.605u w=0.42u l=0.13u
X33 VDPWR.t52 a_22511_61578# a_22205_61585# VDPWR.t0 sg13_lv_pmos ad=0.2083p pd=1.5u as=0.34p ps=2.68u w=1u l=0.13u
X34 ring_0/inverter_ring_0/skullfet_inverter_3.A ring_0/inverter_ring_0/skullfet_inverter_4.A VDPWR.t63 VDPWR.t62 sg13_lv_pmos ad=6.2694p pd=26.64u as=4.4307p ps=10.9u w=4.05u l=0.4u
X35 a_24396_61704# a_23219_61640# a_24011_61559# VGND.t21 sg13_lv_nmos ad=38.85f pd=0.605u as=0.1596p ps=1.6u w=0.42u l=0.13u
X36 a_21856_61617# a_21980_61316# VDPWR.t3 VDPWR.t0 sg13_lv_pmos ad=0.2442p pd=2.06u as=0.4657p ps=2.54u w=0.66u l=0.13u
X37 uo_out[2].t0 a_18941_61585# VGND.t3 VGND.t2 sg13_lv_nmos ad=0.1406p pd=1.12u as=0.2516p ps=2.16u w=0.74u l=0.13u
X38 ring_0/inverter_ring_0/skullfet_inverter_17.A ring_0/inverter_ring_0/skullfet_inverter_18.A VDPWR.t47 VDPWR.t46 sg13_lv_pmos ad=6.2694p pd=26.64u as=4.4307p ps=10.9u w=4.05u l=0.4u
X39 VGND.t33 ring_0/inverter_ring_0/skullfet_inverter_14.A ring_0/inverter_ring_0/skullfet_inverter_13.A VGND.t32 sg13_lv_nmos ad=4.2687p pd=10.82u as=6.4314p ps=26.72u w=4.05u l=0.4u
X40 uo_out[2].t1 a_18941_61585# VDPWR.t2 VDPWR.t0 sg13_lv_pmos ad=0.2156p pd=1.505u as=0.3808p ps=2.92u w=1.12u l=0.13u
X41 VGND.t57 ring_0/inverter_ring_0/skullfet_inverter_2.A ring_0/inverter_ring_0/skullfet_inverter_1.A VGND.t56 sg13_lv_nmos ad=4.2687p pd=10.82u as=6.4314p ps=26.72u w=4.05u l=0.4u
X42 a_19247_61578# a_19947_61366# a_19897_61402# VDPWR.t0 sg13_lv_pmos ad=0.19115p pd=1.565u as=52.5f ps=0.67u w=0.42u l=0.13u
X43 ring_0/inverter_ring_0/skullfet_inverter_4.A ring_0/inverter_ring_0/skullfet_inverter_5.A VDPWR.t9 VDPWR.t8 sg13_lv_pmos ad=6.2694p pd=26.64u as=4.4307p ps=10.9u w=4.05u l=0.4u
X44 VGND.t90 ring_0/inverter_ring_0/skullfet_inverter_11.A ring_0/inverter_ring_0/skullfet_inverter_10.A VGND.t89 sg13_lv_nmos ad=4.2687p pd=10.82u as=6.4314p ps=26.72u w=4.05u l=0.4u
X45 VDPWR.t1 a_18941_61585# uo_out[2].t1 VDPWR.t0 sg13_lv_pmos ad=0.3808p pd=2.92u as=0.2156p ps=1.505u w=1.12u l=0.13u
X46 VGND.t102 ring_0/inverter_ring_0/skullfet_inverter_0.A ring_0/inverter_ring_0/skullfet_inverter_0.Y VGND.t101 sg13_lv_nmos ad=4.2687p pd=10.82u as=6.4314p ps=26.72u w=4.05u l=0.4u
X47 a_20876_61559# a_19947_61366# a_20790_61326# VDPWR.t0 sg13_lv_pmos ad=79.8f pd=0.8u as=0.1428p ps=1.52u w=0.42u l=0.13u
X48 a_18106_61326# a_17206_61250# a_17996_61559# VDPWR.t0 sg13_lv_pmos ad=54.6f pd=0.68u as=79.8f ps=0.8u w=0.42u l=0.13u
X49 VGND.t5 ring_0/inverter_ring_0/skullfet_inverter_3.A ring_0/inverter_ring_0/skullfet_inverter_2.A VGND.t4 sg13_lv_nmos ad=4.2687p pd=10.82u as=6.4314p ps=26.72u w=4.05u l=0.4u
X50 VGND.t27 ring_0/inverter_ring_0/skullfet_inverter_16.A uo_out[0].t0 VGND.t26 sg13_lv_nmos ad=4.2687p pd=10.82u as=6.4314p ps=26.72u w=4.05u l=0.4u
X51 ring_0/inverter_ring_0/skullfet_inverter_18.A ring_0/inverter_ring_0/skullfet_inverter_19.A VDPWR.t57 VDPWR.t56 sg13_lv_pmos ad=6.2694p pd=26.64u as=4.4307p ps=10.9u w=4.05u l=0.4u
X52 a_19947_61366# a_20086_61250# a_20399_61281# VDPWR.t0 sg13_lv_pmos ad=0.3864p pd=2.93u as=0.43102p ps=2.145u w=1.12u l=0.13u
X53 ring_0/inverter_ring_0/skullfet_inverter_9.A ring_0/inverter_ring_0/skullfet_inverter_10.A VDPWR.t37 VDPWR.t36 sg13_lv_pmos ad=6.2694p pd=26.64u as=4.4307p ps=10.9u w=4.05u l=0.4u
X54 VGND.t84 a_22511_61578# freq_divider_0.sg13g2_dfrbp_2_2.D VGND.t83 sg13_lv_nmos ad=0.2516p pd=2.16u as=0.1406p ps=1.12u w=0.74u l=0.13u
X55 VGND.t12 uo_out[0].t2 ring_0/inverter_ring_0/skullfet_inverter_14.A VGND.t11 sg13_lv_nmos ad=4.2687p pd=10.82u as=6.4314p ps=26.72u w=4.05u l=0.4u
X56 VGND.t29 a_22205_61585# uo_out[1].t0 VGND.t28 sg13_lv_nmos ad=0.2516p pd=2.16u as=0.1406p ps=1.12u w=0.74u l=0.13u
X57 a_19681_61717# a_19247_61578# a_19587_61717# VGND.t118 sg13_lv_nmos ad=37.8f pd=0.6u as=0.1428p ps=1.52u w=0.42u l=0.13u
X58 a_17996_61559# a_17067_61366# a_17910_61326# VDPWR.t0 sg13_lv_pmos ad=79.8f pd=0.8u as=0.1428p ps=1.52u w=0.42u l=0.13u
X59 a_19955_61640# a_20086_61250# a_19247_61578# VDPWR.t0 sg13_lv_pmos ad=0.34p pd=2.68u as=0.19115p ps=1.565u w=1u l=0.13u
X60 a_20986_61326# a_20086_61250# a_20876_61559# VDPWR.t0 sg13_lv_pmos ad=54.6f pd=0.68u as=79.8f ps=0.8u w=0.42u l=0.13u
X61 a_16895_61402# freq_divider_0.sg13g2_dfrbp_2_0.RESET_B a_16707_61717# VDPWR.t0 sg13_lv_pmos ad=0.25605p pd=1.935u as=79.8f ps=0.8u w=0.42u l=0.13u
X62 a_24140_61559# a_23211_61366# a_24054_61326# VDPWR.t0 sg13_lv_pmos ad=79.8f pd=0.8u as=0.1428p ps=1.52u w=0.42u l=0.13u
X63 a_17067_61366# a_17206_61250# a_17519_61281# VDPWR.t0 sg13_lv_pmos ad=0.3864p pd=2.93u as=0.43102p ps=2.145u w=1.12u l=0.13u
X64 a_23039_61402# freq_divider_0.sg13g2_dfrbp_2_0.RESET_B a_22851_61717# VDPWR.t0 sg13_lv_pmos ad=0.25605p pd=1.935u as=79.8f ps=0.8u w=0.42u l=0.13u
X65 a_17067_61366# a_17206_61250# a_17524_61632# VGND.t99 sg13_lv_nmos ad=0.2516p pd=2.16u as=0.43315p ps=2.205u w=0.74u l=0.13u
X66 VDPWR.t35 freq_divider_0.sg13g2_dfrbp_2_0.D a_17910_61326# VDPWR.t0 sg13_lv_pmos ad=0.1428p pd=1.52u as=79.8f ps=0.8u w=0.42u l=0.13u
X67 freq_divider_0.sg13g2_dfrbp_2_1.D a_19247_61578# VGND.t114 VGND.t117 sg13_lv_nmos ad=0.1406p pd=1.12u as=0.1331p ps=1.12u w=0.74u l=0.13u
X68 a_21132_61704# a_19955_61640# a_20747_61559# VGND.t108 sg13_lv_nmos ad=38.85f pd=0.605u as=0.1596p ps=1.6u w=0.42u l=0.13u
X69 a_17910_61326# a_17206_61250# a_17996_61559# VGND.t110 sg13_lv_nmos ad=0.1296p pd=1.52u as=81f ps=0.81u w=0.42u l=0.13u
X70 a_19845_61717# a_20086_61250# a_19247_61578# VGND.t17 sg13_lv_nmos ad=0.1428p pd=1.52u as=0.12665p ps=1.145u w=0.42u l=0.13u
X71 a_16965_61717# a_16707_61717# VGND.t46 VGND.t45 sg13_lv_nmos ad=0.1428p pd=1.52u as=79.8f ps=0.8u w=0.42u l=0.13u
X72 a_19897_61402# a_19587_61717# a_19775_61402# VDPWR.t0 sg13_lv_pmos ad=52.5f pd=0.67u as=0.25605p ps=1.935u w=0.42u l=0.13u
X73 a_20790_61326# a_20086_61250# a_20876_61559# VGND.t16 sg13_lv_nmos ad=0.1296p pd=1.52u as=81f ps=0.81u w=0.42u l=0.13u
X74 a_18252_61704# a_17075_61640# a_17867_61559# VGND.t54 sg13_lv_nmos ad=38.85f pd=0.605u as=0.1596p ps=1.6u w=0.42u l=0.13u
X75 VGND.t116 a_19247_61578# freq_divider_0.sg13g2_dfrbp_2_1.D VGND.t115 sg13_lv_nmos ad=0.2516p pd=2.16u as=0.1406p ps=1.12u w=0.74u l=0.13u
X76 VGND.t1 a_18941_61585# uo_out[2].t0 VGND.t0 sg13_lv_nmos ad=0.2516p pd=2.16u as=0.1406p ps=1.12u w=0.74u l=0.13u
X77 a_24140_61559# a_23211_61366# a_24011_61559# VGND.t68 sg13_lv_nmos ad=81f pd=0.81u as=0.2163p ps=1.87u w=0.42u l=0.13u
X78 a_16965_61717# a_17206_61250# a_16367_61578# VGND.t109 sg13_lv_nmos ad=0.1428p pd=1.52u as=0.12665p ps=1.145u w=0.42u l=0.13u
X79 VGND.t114 a_19247_61578# a_18941_61585# VGND.t113 sg13_lv_nmos ad=0.1331p pd=1.12u as=0.2176p ps=1.96u w=0.64u l=0.13u
X80 a_17996_61559# freq_divider_0.sg13g2_dfrbp_2_0.RESET_B VDPWR.t25 VDPWR.t0 sg13_lv_pmos ad=0.147p pd=1.54u as=0.1563p ps=1.22u w=0.42u l=0.13u
X81 VDPWR.t27 a_19955_61640# a_20986_61326# VDPWR.t0 sg13_lv_pmos ad=0.1563p pd=1.22u as=54.6f ps=0.68u w=0.42u l=0.13u
X82 a_20790_61326# freq_divider_0.sg13g2_dfrbp_2_1.D a_21529_61717# VGND.t53 sg13_lv_nmos ad=0.1428p pd=1.52u as=60.89999f ps=0.71u w=0.42u l=0.13u
X83 VDPWR.t28 a_17996_61559# a_17075_61640# VDPWR.t0 sg13_lv_pmos ad=0.36237p pd=2.605u as=0.34p ps=2.68u w=1u l=0.13u
X84 VGND.t98 ring_0/inverter_ring_0/skullfet_inverter_0.Y ring_0/inverter_ring_0/skullfet_inverter_19.A VGND.t97 sg13_lv_nmos ad=4.2687p pd=10.82u as=6.4314p ps=26.72u w=4.05u l=0.4u
X85 a_24140_61559# freq_divider_0.sg13g2_dfrbp_2_0.RESET_B VDPWR.t13 VDPWR.t0 sg13_lv_pmos ad=0.147p pd=1.54u as=0.1563p ps=1.22u w=0.42u l=0.13u
X86 ring_0/inverter_ring_0/skullfet_inverter_5.A ring_0/inverter_ring_0/skullfet_inverter_6.A VDPWR.t11 VDPWR.t10 sg13_lv_pmos ad=6.2694p pd=26.64u as=4.4307p ps=10.9u w=4.05u l=0.4u
X87 VDPWR.t75 a_19247_61578# freq_divider_0.sg13g2_dfrbp_2_1.D VDPWR.t0 sg13_lv_pmos ad=0.2014p pd=1.53u as=0.2128p ps=1.5u w=1.12u l=0.13u
X88 VGND.t78 ring_0/inverter_ring_0/skullfet_inverter_8.A ring_0/inverter_ring_0/skullfet_inverter_7.A VGND.t77 sg13_lv_nmos ad=4.2687p pd=10.82u as=6.4314p ps=26.72u w=4.05u l=0.4u
X89 a_20399_61281# uo_out[1].t2 a_20086_61250# VDPWR.t0 sg13_lv_pmos ad=0.43102p pd=2.145u as=0.3808p ps=2.92u w=1.12u l=0.13u
X90 VDPWR.t16 a_24140_61559# a_23219_61640# VDPWR.t0 sg13_lv_pmos ad=0.36237p pd=2.605u as=0.34p ps=2.68u w=1u l=0.13u
X91 a_23219_61640# a_23350_61250# a_22511_61578# VDPWR.t0 sg13_lv_pmos ad=0.34p pd=2.68u as=0.19115p ps=1.565u w=1u l=0.13u
X92 VDPWR.t25 a_17075_61640# a_18106_61326# VDPWR.t0 sg13_lv_pmos ad=0.1563p pd=1.22u as=54.6f ps=0.68u w=0.42u l=0.13u
X93 a_19587_61717# a_19247_61578# VDPWR.t75 VDPWR.t0 sg13_lv_pmos ad=79.8f pd=0.8u as=0.2014p ps=1.53u w=0.42u l=0.13u
X94 VGND.t52 ring_0/inverter_ring_0/skullfet_inverter_1.A ring_0/inverter_ring_0/skullfet_inverter_0.A VGND.t51 sg13_lv_nmos ad=4.2687p pd=10.82u as=6.4314p ps=26.72u w=4.05u l=0.4u
X95 ring_0/inverter_ring_0/skullfet_inverter_10.A ring_0/inverter_ring_0/skullfet_inverter_11.A VDPWR.t59 VDPWR.t58 sg13_lv_pmos ad=6.2694p pd=26.64u as=4.4307p ps=10.9u w=4.05u l=0.4u
X96 VDPWR.t20 a_22205_61585# uo_out[1].t1 VDPWR.t0 sg13_lv_pmos ad=0.3808p pd=2.92u as=0.2156p ps=1.505u w=1.12u l=0.13u
X97 a_17519_61281# uo_out[2].t2 a_17206_61250# VDPWR.t0 sg13_lv_pmos ad=0.43102p pd=2.145u as=0.3808p ps=2.92u w=1.12u l=0.13u
X98 VGND.t70 ring_0/inverter_ring_0/skullfet_inverter_12.A ring_0/inverter_ring_0/skullfet_inverter_11.A VGND.t69 sg13_lv_nmos ad=4.2687p pd=10.82u as=6.4314p ps=26.72u w=4.05u l=0.4u
X99 a_23109_61717# a_23350_61250# a_22511_61578# VGND.t7 sg13_lv_nmos ad=0.1428p pd=1.52u as=0.12665p ps=1.145u w=0.42u l=0.13u
X100 ring_0/inverter_ring_0/skullfet_inverter_0.A ring_0/inverter_ring_0/skullfet_inverter_1.A VDPWR.t30 VDPWR.t29 sg13_lv_pmos ad=6.2694p pd=26.64u as=4.4307p ps=10.9u w=4.05u l=0.4u
X101 ring_0/inverter_ring_0/skullfet_inverter_16.A ring_0/inverter_ring_0/skullfet_inverter_17.A VDPWR.t45 VDPWR.t44 sg13_lv_pmos ad=6.2694p pd=26.64u as=4.4307p ps=10.9u w=4.05u l=0.4u
X102 a_21980_61316# a_21980_61316# VGND.t10 VGND.t20 sg13_lv_nmos ad=0.111p pd=1.34u as=0.20432p ps=1.585u w=0.3u l=0.13u
X103 VGND.t42 freq_divider_0.sg13g2_dfrbp_2_0.RESET_B a_19681_61717# VGND.t41 sg13_lv_nmos ad=79.8f pd=0.8u as=37.8f ps=0.6u w=0.42u l=0.13u
X104 ring_0/inverter_ring_0/skullfet_inverter_2.A ring_0/inverter_ring_0/skullfet_inverter_3.A VDPWR.t5 VDPWR.t4 sg13_lv_pmos ad=6.2694p pd=26.64u as=4.4307p ps=10.9u w=4.05u l=0.4u
X105 uo_out[0].t1 ring_0/inverter_ring_0/skullfet_inverter_16.A VDPWR.t18 VDPWR.t17 sg13_lv_pmos ad=6.2694p pd=26.64u as=4.4307p ps=10.9u w=4.05u l=0.4u
X106 a_21529_61717# freq_divider_0.sg13g2_dfrbp_2_0.RESET_B VGND.t40 VGND.t39 sg13_lv_nmos ad=60.89999f pd=0.71u as=0.1626p ps=1.415u w=0.42u l=0.13u
X107 VGND.t40 a_20876_61559# a_19955_61640# VGND.t103 sg13_lv_nmos ad=0.1626p pd=1.415u as=0.2516p ps=2.16u w=0.74u l=0.13u
X108 uo_out[3].t0 a_16061_61585# VGND.t94 VGND.t93 sg13_lv_nmos ad=0.1406p pd=1.12u as=0.2516p ps=2.16u w=0.74u l=0.13u
X109 a_20404_61632# uo_out[1].t2 a_20086_61250# VGND.t15 sg13_lv_nmos ad=0.43315p pd=2.205u as=0.2516p ps=2.16u w=0.74u l=0.13u
X110 VGND.t10 a_21856_61617# a_21777_61520# VGND.t9 sg13_lv_nmos ad=0.20432p pd=1.585u as=0.27427p ps=2.28u w=0.795u l=0.13u
X111 a_16367_61578# a_17067_61366# a_17017_61402# VDPWR.t0 sg13_lv_pmos ad=0.19115p pd=1.565u as=52.5f ps=0.67u w=0.42u l=0.13u
X112 ring_0/inverter_ring_0/skullfet_inverter_14.A uo_out[0].t2 VDPWR.t7 VDPWR.t6 sg13_lv_pmos ad=6.2694p pd=26.64u as=4.4307p ps=10.9u w=4.05u l=0.4u
X113 VGND.t96 ring_0/inverter_ring_0/skullfet_inverter_4.A ring_0/inverter_ring_0/skullfet_inverter_3.A VGND.t95 sg13_lv_nmos ad=4.2687p pd=10.82u as=6.4314p ps=26.72u w=4.05u l=0.4u
X114 VDPWR.t13 a_23219_61640# a_24250_61326# VDPWR.t0 sg13_lv_pmos ad=0.1563p pd=1.22u as=54.6f ps=0.68u w=0.42u l=0.13u
X115 a_24250_61326# a_23350_61250# a_24140_61559# VDPWR.t0 sg13_lv_pmos ad=54.6f pd=0.68u as=79.8f ps=0.8u w=0.42u l=0.13u
X116 a_20790_61326# freq_divider_0.sg13g2_dfrbp_2_0.RESET_B VDPWR.t23 VDPWR.t0 sg13_lv_pmos ad=79.8f pd=0.8u as=0.36237p ps=2.605u w=0.42u l=0.13u
X117 a_24054_61326# freq_divider_0.sg13g2_dfrbp_2_2.D a_24793_61717# VGND.t100 sg13_lv_nmos ad=0.1428p pd=1.52u as=60.89999f ps=0.71u w=0.42u l=0.13u
X118 a_22511_61578# a_23211_61366# a_23219_61640# VGND.t67 sg13_lv_nmos ad=0.12665p pd=1.145u as=0.3473p ps=2.71u w=0.74u l=0.13u
X119 a_18649_61717# freq_divider_0.sg13g2_dfrbp_2_0.RESET_B VGND.t38 VGND.t37 sg13_lv_nmos ad=60.89999f pd=0.71u as=0.1626p ps=1.415u w=0.42u l=0.13u
X120 freq_divider_0.sg13g2_dfrbp_2_0.D a_16367_61578# VDPWR.t38 VDPWR.t0 sg13_lv_pmos ad=0.2128p pd=1.5u as=0.2083p ps=1.5u w=1.12u l=0.13u
X121 a_17524_61632# uo_out[2].t2 a_17206_61250# VGND.t99 sg13_lv_nmos ad=0.43315p pd=2.205u as=0.2516p ps=2.16u w=0.74u l=0.13u
X122 VDPWR.t74 a_19247_61578# a_18941_61585# VDPWR.t0 sg13_lv_pmos ad=0.2083p pd=1.5u as=0.34p ps=2.68u w=1u l=0.13u
X123 VGND.t23 ring_0/inverter_ring_0/skullfet_inverter_7.A ring_0/inverter_ring_0/skullfet_inverter_6.A VGND.t22 sg13_lv_nmos ad=4.2687p pd=10.82u as=6.4314p ps=26.72u w=4.05u l=0.4u
X124 a_24793_61717# freq_divider_0.sg13g2_dfrbp_2_0.RESET_B VGND.t25 VGND.t36 sg13_lv_nmos ad=60.89999f pd=0.71u as=0.1626p ps=1.415u w=0.42u l=0.13u
X125 a_17075_61640# a_17206_61250# a_16367_61578# VDPWR.t0 sg13_lv_pmos ad=0.34p pd=2.68u as=0.19115p ps=1.565u w=1u l=0.13u
X126 uo_out[3].t1 a_16061_61585# VDPWR.t61 VDPWR.t0 sg13_lv_pmos ad=0.2156p pd=1.505u as=0.3808p ps=2.92u w=1.12u l=0.13u
X127 a_24054_61326# a_23350_61250# a_24140_61559# VGND.t6 sg13_lv_nmos ad=0.1296p pd=1.52u as=81f ps=0.81u w=0.42u l=0.13u
X128 VDPWR.t60 a_16061_61585# uo_out[3].t1 VDPWR.t0 sg13_lv_pmos ad=0.3808p pd=2.92u as=0.2156p ps=1.505u w=1.12u l=0.13u
X129 a_22511_61578# a_23211_61366# a_23161_61402# VDPWR.t0 sg13_lv_pmos ad=0.19115p pd=1.565u as=52.5f ps=0.67u w=0.42u l=0.13u
X130 ring_0/inverter_ring_0/skullfet_inverter_8.A ring_0/inverter_ring_0/skullfet_inverter_9.A VDPWR.t51 VDPWR.t50 sg13_lv_pmos ad=6.2694p pd=26.64u as=4.4307p ps=10.9u w=4.05u l=0.4u
X131 uo_out[1].t1 a_22205_61585# VDPWR.t19 VDPWR.t0 sg13_lv_pmos ad=0.2156p pd=1.505u as=0.3808p ps=2.92u w=1.12u l=0.13u
X132 ring_0/inverter_ring_0/skullfet_inverter_7.A ring_0/inverter_ring_0/skullfet_inverter_8.A VDPWR.t49 VDPWR.t48 sg13_lv_pmos ad=6.2694p pd=26.64u as=4.4307p ps=10.9u w=4.05u l=0.4u
X133 VGND.t60 ring_0/inverter_ring_0/skullfet_inverter_10.A ring_0/inverter_ring_0/skullfet_inverter_9.A VGND.t59 sg13_lv_nmos ad=4.2687p pd=10.82u as=6.4314p ps=26.72u w=4.05u l=0.4u
X134 VGND.t25 a_24140_61559# a_23219_61640# VGND.t24 sg13_lv_nmos ad=0.1626p pd=1.415u as=0.2516p ps=2.16u w=0.74u l=0.13u
X135 a_23668_61632# uo_out[0].t3 a_23350_61250# VGND.t8 sg13_lv_nmos ad=0.43315p pd=2.205u as=0.2516p ps=2.16u w=0.74u l=0.13u
X136 freq_divider_0.sg13g2_dfrbp_2_2.D a_22511_61578# VDPWR.t52 VDPWR.t0 sg13_lv_pmos ad=0.2128p pd=1.5u as=0.2083p ps=1.5u w=1.12u l=0.13u
X137 a_16801_61717# a_16367_61578# a_16707_61717# VGND.t66 sg13_lv_nmos ad=37.8f pd=0.6u as=0.1428p ps=1.52u w=0.42u l=0.13u
X138 a_19247_61578# a_19947_61366# a_19955_61640# VGND.t75 sg13_lv_nmos ad=0.12665p pd=1.145u as=0.3473p ps=2.71u w=0.74u l=0.13u
X139 ring_0/inverter_ring_0/skullfet_inverter_1.A ring_0/inverter_ring_0/skullfet_inverter_2.A VDPWR.t34 VDPWR.t33 sg13_lv_pmos ad=6.2694p pd=26.64u as=4.4307p ps=10.9u w=4.05u l=0.4u
X140 ring_0/inverter_ring_0/skullfet_inverter_13.A ring_0/inverter_ring_0/skullfet_inverter_14.A VDPWR.t22 VDPWR.t21 sg13_lv_pmos ad=6.2694p pd=26.64u as=4.4307p ps=10.9u w=4.05u l=0.4u
X141 a_19775_61402# freq_divider_0.sg13g2_dfrbp_2_0.RESET_B a_19587_61717# VDPWR.t0 sg13_lv_pmos ad=0.25605p pd=1.935u as=79.8f ps=0.8u w=0.42u l=0.13u
X142 ring_0/inverter_ring_0/skullfet_inverter_0.Y ring_0/inverter_ring_0/skullfet_inverter_0.A VDPWR.t68 VDPWR.t67 sg13_lv_pmos ad=6.2694p pd=26.64u as=4.4307p ps=10.9u w=4.05u l=0.4u
X143 freq_divider_0.sg13g2_dfrbp_2_0.D a_16367_61578# VGND.t62 VGND.t65 sg13_lv_nmos ad=0.1406p pd=1.12u as=0.1331p ps=1.12u w=0.74u l=0.13u
X144 a_17910_61326# freq_divider_0.sg13g2_dfrbp_2_0.D a_18649_61717# VGND.t58 sg13_lv_nmos ad=0.1428p pd=1.52u as=60.89999f ps=0.71u w=0.42u l=0.13u
X145 a_16367_61578# a_17067_61366# a_17075_61640# VGND.t106 sg13_lv_nmos ad=0.12665p pd=1.145u as=0.3473p ps=2.71u w=0.74u l=0.13u
X146 VGND.t35 freq_divider_0.sg13g2_dfrbp_2_0.RESET_B a_22945_61717# VGND.t34 sg13_lv_nmos ad=79.8f pd=0.8u as=37.8f ps=0.6u w=0.42u l=0.13u
X147 a_17017_61402# a_16707_61717# a_16895_61402# VDPWR.t0 sg13_lv_pmos ad=52.5f pd=0.67u as=0.25605p ps=1.935u w=0.42u l=0.13u
X148 VGND.t74 ring_0/inverter_ring_0/skullfet_inverter_18.A ring_0/inverter_ring_0/skullfet_inverter_17.A VGND.t73 sg13_lv_nmos ad=4.2687p pd=10.82u as=6.4314p ps=26.72u w=4.05u l=0.4u
X149 VGND.t64 a_16367_61578# freq_divider_0.sg13g2_dfrbp_2_0.D VGND.t63 sg13_lv_nmos ad=0.2516p pd=2.16u as=0.1406p ps=1.12u w=0.74u l=0.13u
X150 VGND.t19 ring_0/inverter_ring_0/skullfet_inverter_6.A ring_0/inverter_ring_0/skullfet_inverter_5.A VGND.t18 sg13_lv_nmos ad=4.2687p pd=10.82u as=6.4314p ps=26.72u w=4.05u l=0.4u
X151 VGND.t92 a_16061_61585# uo_out[3].t0 VGND.t91 sg13_lv_nmos ad=0.2516p pd=2.16u as=0.1406p ps=1.12u w=0.74u l=0.13u
X152 a_19845_61717# a_19587_61717# VGND.t42 VGND.t41 sg13_lv_nmos ad=0.1428p pd=1.52u as=79.8f ps=0.8u w=0.42u l=0.13u
X153 VGND.t14 ring_0/inverter_ring_0/skullfet_inverter_5.A ring_0/inverter_ring_0/skullfet_inverter_4.A VGND.t13 sg13_lv_nmos ad=4.2687p pd=10.82u as=6.4314p ps=26.72u w=4.05u l=0.4u
X154 VGND.t62 a_16367_61578# a_16061_61585# VGND.t61 sg13_lv_nmos ad=0.1331p pd=1.12u as=0.2176p ps=1.96u w=0.64u l=0.13u
X155 a_23663_61281# uo_out[0].t3 a_23350_61250# VDPWR.t0 sg13_lv_pmos ad=0.43102p pd=2.145u as=0.3808p ps=2.92u w=1.12u l=0.13u
X156 a_19947_61366# a_20086_61250# a_20404_61632# VGND.t15 sg13_lv_nmos ad=0.2516p pd=2.16u as=0.43315p ps=2.205u w=0.74u l=0.13u
X157 VGND.t88 ring_0/inverter_ring_0/skullfet_inverter_19.A ring_0/inverter_ring_0/skullfet_inverter_18.A VGND.t87 sg13_lv_nmos ad=4.2687p pd=10.82u as=6.4314p ps=26.72u w=4.05u l=0.4u
X158 VDPWR.t31 freq_divider_0.sg13g2_dfrbp_2_1.D a_20790_61326# VDPWR.t0 sg13_lv_pmos ad=0.1428p pd=1.52u as=79.8f ps=0.8u w=0.42u l=0.13u
X159 freq_divider_0.sg13g2_dfrbp_2_2.D a_22511_61578# VGND.t82 VGND.t81 sg13_lv_nmos ad=0.1406p pd=1.12u as=0.1331p ps=1.12u w=0.74u l=0.13u
R0 VGND.n202 VGND.n59 36337.9
R1 VGND.n210 VGND.n111 26006.8
R2 VGND.n349 VGND.n111 20289.4
R3 VGND.t95 VGND.n160 19416.2
R4 VGND.n472 VGND.n471 17662.9
R5 VGND.n194 VGND.n70 15262.5
R6 VGND.n202 VGND.n111 12285.4
R7 VGND.n61 VGND.n59 12285.4
R8 VGND.n471 VGND.n470 12279.6
R9 VGND.n200 VGND.t18 12039.2
R10 VGND.t22 VGND.n63 10402.1
R11 VGND.n285 VGND.n278 10052.7
R12 VGND.n473 VGND.n472 10011.4
R13 VGND.n159 VGND.n158 9840.79
R14 VGND.n201 VGND.n61 9066.9
R15 VGND.n269 VGND.n200 7844.55
R16 VGND.n210 VGND.n204 7498.6
R17 VGND.n199 VGND.n198 7474.99
R18 VGND.n158 VGND.n155 7291.79
R19 VGND.n194 VGND.t13 7169.54
R20 VGND.n476 VGND.n65 6899.39
R21 VGND.n480 VGND.n60 6851.13
R22 VGND.n69 VGND.n65 6429.23
R23 VGND.n269 VGND.t4 6051.63
R24 VGND.n203 VGND.n202 6014.02
R25 VGND.n470 VGND.n469 5872.62
R26 VGND.n204 VGND.n203 5699.78
R27 VGND.n470 VGND.n69 5321.16
R28 VGND.n195 VGND.n194 5298.87
R29 VGND.n482 VGND.n481 4953.11
R30 VGND.n472 VGND.n69 4950.06
R31 VGND.n268 VGND.n267 4945.91
R32 VGND.n295 VGND.n155 3511.45
R33 VGND.n158 VGND.n157 3475.34
R34 VGND.n280 VGND.n275 3284.18
R35 VGND.n470 VGND.n71 3154.9
R36 VGND.n200 VGND.n199 3153.12
R37 VGND.n286 VGND.n285 2376.2
R38 VGND.n269 VGND.n157 2220.92
R39 VGND.n474 VGND.n473 2091.57
R40 VGND.n478 VGND.n63 1946.24
R41 VGND.n203 VGND.n201 1880.71
R42 VGND.n160 VGND.n70 1835.32
R43 VGND.n74 VGND.n71 1763.01
R44 VGND.n269 VGND.n201 1734.38
R45 VGND.n200 VGND.n63 1470.05
R46 VGND.n287 VGND.t101 1368.89
R47 VGND.t87 VGND.n280 1347.06
R48 VGND.n280 VGND.t97 1194.61
R49 VGND.t13 VGND.n193 1123.79
R50 VGND.n471 VGND.n70 1061.65
R51 VGND.n287 VGND.n275 977.779
R52 VGND.n60 VGND.t111 964.287
R53 VGND.n269 VGND.n159 905.553
R54 VGND.t111 VGND.n59 876.317
R55 VGND.n480 VGND.n61 837.723
R56 VGND.n279 VGND.n155 814.62
R57 VGND.n239 VGND.n236 744.615
R58 VGND.n491 VGND.n5 744.615
R59 VGND.n53 VGND.n52 744.615
R60 VGND.n209 VGND.t11 675.663
R61 VGND.n198 VGND.t4 656.004
R62 VGND.n469 VGND.t18 656.004
R63 VGND.n199 VGND.t95 615.229
R64 VGND.n159 VGND.n154 608.424
R65 VGND.n350 VGND.n59 575.212
R66 VGND.n199 VGND.n195 498.868
R67 VGND.n239 VGND.t34 480
R68 VGND.n491 VGND.t41 480
R69 VGND.n52 VGND.t45 480
R70 VGND.n475 VGND.t79 455.887
R71 VGND.n74 VGND.t22 427.755
R72 VGND.n269 VGND.n268 402.269
R73 VGND.n481 VGND.n480 395.865
R74 VGND.n269 VGND.n204 392.892
R75 VGND.t32 VGND.n349 372.399
R76 VGND.n286 VGND.n275 344.149
R77 VGND.t97 VGND.n278 335.173
R78 VGND.n68 VGND.t79 330.428
R79 VGND.n295 VGND.t71 318.406
R80 VGND.n349 VGND.n348 307.757
R81 VGND.n160 VGND.n157 278.079
R82 VGND.n235 VGND.t83 260.005
R83 VGND.n16 VGND.t115 260.005
R84 VGND.t63 VGND.n54 260.005
R85 VGND.t81 VGND.n233 234.738
R86 VGND.t117 VGND.n14 234.738
R87 VGND.n56 VGND.t65 234.738
R88 VGND.n246 VGND.t86 232.869
R89 VGND.n25 VGND.t113 232.869
R90 VGND.t61 VGND.n43 232.869
R91 VGND.t56 VGND.n154 231.615
R92 VGND.t9 VGND.n228 228.233
R93 VGND.n279 VGND.t51 227.947
R94 VGND.n201 VGND.n63 226.054
R95 VGND.n253 VGND.t103 200.339
R96 VGND.n31 VGND.t105 200.339
R97 VGND.n215 VGND.t24 200.339
R98 VGND.n251 VGND.t53 195.942
R99 VGND.n12 VGND.t58 194.969
R100 VGND.n479 VGND.n478 194.851
R101 VGND.n250 VGND.t28 185.124
R102 VGND.n29 VGND.t0 185.124
R103 VGND.t91 VGND.n41 185.124
R104 VGND.t30 VGND.n231 184.825
R105 VGND.t2 VGND.n12 184.825
R106 VGND.n267 VGND.t100 180.052
R107 VGND.n231 VGND.t20 172.145
R108 VGND.n482 VGND.t93 169.907
R109 VGND.n285 VGND.t73 164.255
R110 VGND.t108 VGND.t49 159.763
R111 VGND.t54 VGND.t47 159.763
R112 VGND.t21 VGND.t43 159.763
R113 VGND.t76 VGND.n224 156.929
R114 VGND.t107 VGND.n9 156.929
R115 VGND.t68 VGND.n212 156.929
R116 VGND.n257 VGND.t16 154.614
R117 VGND.n35 VGND.t110 154.614
R118 VGND.n218 VGND.t6 154.614
R119 VGND.n71 VGND.n65 151.276
R120 VGND.t39 VGND.n226 149.62
R121 VGND.t37 VGND.n11 149.62
R122 VGND.t36 VGND.n214 149.62
R123 VGND.t34 VGND.t67 138.463
R124 VGND.t41 VGND.t75 138.463
R125 VGND.t45 VGND.t106 138.463
R126 VGND.n268 VGND.t26 132.323
R127 VGND.n478 VGND.t77 128.216
R128 VGND.n481 VGND.n59 122.921
R129 VGND.t101 VGND.n286 113.026
R130 VGND.n236 VGND.t85 110.237
R131 VGND.t118 VGND.n5 110.237
R132 VGND.t66 VGND.n53 110.237
R133 VGND.n224 VGND.n5 106.212
R134 VGND.n53 VGND.n9 106.212
R135 VGND.n236 VGND.n212 106.212
R136 VGND.t16 VGND.n256 100.478
R137 VGND.t110 VGND.n34 100.478
R138 VGND.t6 VGND.n217 100.478
R139 VGND.n257 VGND.t76 99.7516
R140 VGND.n35 VGND.t107 99.7516
R141 VGND.n218 VGND.t68 99.7516
R142 VGND.n473 VGND.n68 95.8456
R143 VGND.t77 VGND.n477 95.5275
R144 VGND.n253 VGND.t39 93.8297
R145 VGND.n31 VGND.t37 93.8297
R146 VGND.n215 VGND.t36 93.8297
R147 VGND.t20 VGND.n228 86.222
R148 VGND.n295 VGND.n154 84.6642
R149 VGND.n477 VGND.n476 83.8532
R150 VGND.n256 VGND.t108 75.5501
R151 VGND.n34 VGND.t54 75.5501
R152 VGND.n217 VGND.t21 75.5501
R153 VGND.t8 VGND.t7 73.8467
R154 VGND.t15 VGND.t17 73.8467
R155 VGND.t99 VGND.t109 73.8467
R156 VGND.n250 VGND.t30 73.5423
R157 VGND.n29 VGND.t2 73.5423
R158 VGND.t93 VGND.n41 73.5423
R159 VGND.t28 VGND.n246 73.244
R160 VGND.t0 VGND.n25 73.244
R161 VGND.n43 VGND.t91 73.244
R162 VGND.n294 VGND.t51 72.396
R163 VGND.n348 VGND.t11 65.0575
R164 VGND.n350 VGND.t32 63.8663
R165 VGND.n480 VGND.t69 63.5677
R166 VGND.t53 VGND.n226 63.3986
R167 VGND.t58 VGND.n11 63.3986
R168 VGND.n214 VGND.t100 63.3986
R169 VGND.t24 VGND.n213 59.0031
R170 VGND.t103 VGND.n225 59.0031
R171 VGND.t105 VGND.n10 59.0031
R172 VGND.n478 VGND.t89 55.0827
R173 VGND.n270 VGND.t56 51.425
R174 VGND.n206 VGND.t71 51.1311
R175 VGND.t85 VGND.n235 48.4827
R176 VGND.n16 VGND.t118 48.4827
R177 VGND.n54 VGND.t66 48.4827
R178 VGND.t69 VGND.n479 47.9255
R179 VGND.n475 VGND.t59 47.7166
R180 VGND.n475 VGND.n66 44.7738
R181 VGND.n296 VGND.t73 44.7032
R182 VGND.t26 VGND.n210 42.4247
R183 VGND.n66 VGND.t89 41.6077
R184 VGND.n284 VGND.t87 38.7252
R185 VGND.t49 VGND.n225 38.7147
R186 VGND.t47 VGND.n10 38.7147
R187 VGND.t43 VGND.n213 38.7147
R188 VGND.n285 VGND.n279 36.6123
R189 VGND.t59 VGND.n474 36.1063
R190 VGND.n251 VGND.t9 31.1079
R191 VGND.t86 VGND.n233 28.3754
R192 VGND.t113 VGND.n14 28.3754
R193 VGND.n56 VGND.t61 28.3754
R194 VGND.n234 VGND.t81 27.8464
R195 VGND.n15 VGND.t117 27.8464
R196 VGND.t65 VGND.n55 27.8464
R197 VGND.t67 VGND.t8 24.6159
R198 VGND.t75 VGND.t15 24.6159
R199 VGND.t106 VGND.t99 24.6159
R200 VGND.n295 VGND.n294 22.6588
R201 VGND.n210 VGND.n209 22.6333
R202 VGND.n476 VGND.n475 18.8055
R203 VGND.n293 VGND.n292 18.1658
R204 VGND.n272 VGND.n271 18.1658
R205 VGND.n88 VGND.n62 18.1658
R206 VGND.n397 VGND.n396 18.1658
R207 VGND.n77 VGND.n64 18.1658