* NGSPICE file created from tt_um_oscillating_bones.ext - technology: ihp-sg13g2

.subckt tt_um_oscillating_bones ena clk rst_n ui_in[0] ui_in[1] ui_in[2] ui_in[3]
+ ui_in[4] ui_in[5] ui_in[6] ui_in[7] uio_in[0] uio_in[1] uio_in[2] uio_in[3] uio_in[4]
+ uio_in[5] uio_in[6] uio_in[7] uo_out[0] uo_out[1] uo_out[2] uo_out[3] uo_out[4]
+ uo_out[5] uo_out[6] uo_out[7] uio_out[0] uio_out[1] uio_out[2] uio_out[3] uio_out[4]
+ uio_out[5] uio_out[6] uio_out[7] uio_oe[0] uio_oe[1] uio_oe[2] uio_oe[3] uio_oe[4]
+ uio_oe[5] uio_oe[6] uio_oe[7] VGND VDPWR
X0 uo_out[1].t0 a_22205_61585# VGND.t72 VGND.t71 sg13_lv_nmos ad=0.1406p pd=1.12u as=0.2516p ps=2.16u w=0.74u l=0.13u
X1 VDPWR.t51 a_16367_61578# freq_divider_0.sg13g2_dfrbp_2_0.D VDPWR.t2 sg13_lv_pmos ad=0.2014p pd=1.53u as=0.2128p ps=1.5u w=1.12u l=0.13u
X2 VGND.t21 a_17996_61559# a_17075_61640# VGND.t116 sg13_lv_nmos ad=0.1626p pd=1.415u as=0.2516p ps=2.16u w=0.74u l=0.13u
X3 VGND.t29 freq_divider_0.sg13g2_dfrbp_2_0.RESET_B a_21132_61704# VGND.t28 sg13_lv_nmos ad=0.1701p pd=1.65u as=38.85f ps=0.605u w=0.42u l=0.13u
X4 a_16707_61717# a_16367_61578# VDPWR.t51 VDPWR.t2 sg13_lv_pmos ad=79.8f pd=0.8u as=0.2014p ps=1.53u w=0.42u l=0.13u
X5 a_17910_61326# freq_divider_0.sg13g2_dfrbp_2_0.RESET_B VDPWR.t13 VDPWR.t2 sg13_lv_pmos ad=79.8f pd=0.8u as=0.36237p ps=2.605u w=0.42u l=0.13u
X6 a_20876_61559# freq_divider_0.sg13g2_dfrbp_2_0.RESET_B VDPWR.t12 VDPWR.t2 sg13_lv_pmos ad=0.147p pd=1.54u as=0.1563p ps=1.22u w=0.42u l=0.13u
X7 ring_0/inverter_ring_0/skullfet_inverter_19.A ring_0/inverter_ring_0/skullfet_inverter_0.Y VDPWR.t32 VDPWR.t31 sg13_lv_pmos ad=6.2694p pd=26.64u as=4.4307p ps=10.9u w=4.05u l=0.4u
X8 VGND.t79 a_22511_61578# a_22205_61585# VGND.t83 sg13_lv_nmos ad=0.1331p pd=1.12u as=0.2176p ps=1.96u w=0.64u l=0.13u
X9 VGND.t33 freq_divider_0.sg13g2_dfrbp_2_0.RESET_B a_18252_61704# VGND.t32 sg13_lv_nmos ad=0.1701p pd=1.65u as=38.85f ps=0.605u w=0.42u l=0.13u
X10 ring_0/inverter_ring_0/skullfet_inverter_6.A ring_0/inverter_ring_0/skullfet_inverter_7.A VDPWR.t24 VDPWR.t23 sg13_lv_pmos ad=6.2694p pd=26.64u as=4.4307p ps=10.9u w=4.05u l=0.4u
X11 VGND.t1 ring_0/inverter_ring_0/skullfet_inverter_13.A ring_0/inverter_ring_0/skullfet_inverter_12.A VGND.t0 sg13_lv_nmos ad=4.2687p pd=10.82u as=6.4314p ps=26.72u w=4.05u l=0.4u
X12 VDPWR.t8 a_20876_61559# a_19955_61640# VDPWR.t2 sg13_lv_pmos ad=0.36237p pd=2.605u as=0.34p ps=2.68u w=1u l=0.13u
X13 a_23109_61717# a_22851_61717# VGND.t18 VGND.t17 sg13_lv_nmos ad=0.1428p pd=1.52u as=79.8f ps=0.8u w=0.42u l=0.13u
X14 a_24054_61326# freq_divider_0.sg13g2_dfrbp_2_0.RESET_B VDPWR.t7 VDPWR.t2 sg13_lv_pmos ad=79.8f pd=0.8u as=0.36237p ps=2.605u w=0.42u l=0.13u
X15 VGND.t3 ring_0/inverter_ring_0/skullfet_inverter_17.A ring_0/inverter_ring_0/skullfet_inverter_16.A VGND.t2 sg13_lv_nmos ad=4.2687p pd=10.82u as=6.4314p ps=26.72u w=4.05u l=0.4u
X16 VGND.t31 freq_divider_0.sg13g2_dfrbp_2_0.RESET_B a_16801_61717# VGND.t30 sg13_lv_nmos ad=79.8f pd=0.8u as=37.8f ps=0.6u w=0.42u l=0.13u
X17 a_20876_61559# a_19947_61366# a_20747_61559# VGND.t50 sg13_lv_nmos ad=81f pd=0.81u as=0.2163p ps=1.87u w=0.42u l=0.13u
X18 ring_0/inverter_ring_0/skullfet_inverter_12.A ring_0/inverter_ring_0/skullfet_inverter_13.A VDPWR.t1 VDPWR.t0 sg13_lv_pmos ad=6.2694p pd=26.64u as=4.4307p ps=10.9u w=4.05u l=0.4u
X19 VDPWR.t43 a_22511_61578# freq_divider_0.sg13g2_dfrbp_2_2.D VDPWR.t2 sg13_lv_pmos ad=0.2014p pd=1.53u as=0.2128p ps=1.5u w=1.12u l=0.13u
X20 a_23211_61366# a_23350_61250# a_23663_61281# VDPWR.t2 sg13_lv_pmos ad=0.3864p pd=2.93u as=0.43102p ps=2.145u w=1.12u l=0.13u
X21 a_23211_61366# a_23350_61250# a_23668_61632# VGND.t6 sg13_lv_nmos ad=0.2516p pd=2.16u as=0.43315p ps=2.205u w=0.74u l=0.13u
X22 VGND.t8 ring_0/inverter_ring_0/skullfet_inverter_9.A ring_0/inverter_ring_0/skullfet_inverter_8.A VGND.t7 sg13_lv_nmos ad=4.2687p pd=10.82u as=6.4314p ps=26.72u w=4.05u l=0.4u
X23 ring_0/inverter_ring_0/skullfet_inverter_11.A ring_0/inverter_ring_0/skullfet_inverter_12.A VDPWR.t72 VDPWR.t71 sg13_lv_pmos ad=6.2694p pd=26.64u as=4.4307p ps=10.9u w=4.05u l=0.4u
X24 VDPWR.t53 freq_divider_0.sg13g2_dfrbp_2_2.D a_24054_61326# VDPWR.t2 sg13_lv_pmos ad=0.1428p pd=1.52u as=79.8f ps=0.8u w=0.42u l=0.13u
X25 a_22851_61717# a_22511_61578# VDPWR.t43 VDPWR.t2 sg13_lv_pmos ad=79.8f pd=0.8u as=0.2014p ps=1.53u w=0.42u l=0.13u
X26 a_23161_61402# a_22851_61717# a_23039_61402# VDPWR.t2 sg13_lv_pmos ad=52.5f pd=0.67u as=0.25605p ps=1.935u w=0.42u l=0.13u
X27 VDPWR.t49 a_16367_61578# a_16061_61585# VDPWR.t2 sg13_lv_pmos ad=0.2083p pd=1.5u as=0.34p ps=2.68u w=1u l=0.13u
X28 a_17996_61559# a_17067_61366# a_17867_61559# VGND.t58 sg13_lv_nmos ad=81f pd=0.81u as=0.2163p ps=1.87u w=0.42u l=0.13u
X29 freq_divider_0.sg13g2_dfrbp_2_1.D a_19247_61578# VDPWR.t60 VDPWR.t2 sg13_lv_pmos ad=0.2128p pd=1.5u as=0.2083p ps=1.5u w=1.12u l=0.13u
X30 VDPWR.t28 a_21777_61520# freq_divider_0.sg13g2_dfrbp_2_0.RESET_B VDPWR.t2 sg13_lv_pmos ad=0.4657p pd=2.54u as=0.3927p ps=2.99u w=1.155u l=0.13u
X31 a_22945_61717# a_22511_61578# a_22851_61717# VGND.t82 sg13_lv_nmos ad=37.8f pd=0.6u as=0.1428p ps=1.52u w=0.42u l=0.13u
X32 VGND.t27 freq_divider_0.sg13g2_dfrbp_2_0.RESET_B a_24396_61704# VGND.t26 sg13_lv_nmos ad=0.1701p pd=1.65u as=38.85f ps=0.605u w=0.42u l=0.13u
X33 VDPWR.t41 a_22511_61578# a_22205_61585# VDPWR.t2 sg13_lv_pmos ad=0.2083p pd=1.5u as=0.34p ps=2.68u w=1u l=0.13u
X34 ring_0/inverter_ring_0/skullfet_inverter_3.A VDPWR.t57 VDPWR.t59 VDPWR.t58 sg13_lv_pmos ad=6.2694p pd=26.64u as=4.4307p ps=10.9u w=4.05u l=0.4u
X35 a_24396_61704# a_23219_61640# a_24011_61559# VGND.t53 sg13_lv_nmos ad=38.85f pd=0.605u as=0.1596p ps=1.6u w=0.42u l=0.13u
X36 a_21856_61617# a_21980_61316# VDPWR.t28 VDPWR.t2 sg13_lv_pmos ad=0.2442p pd=2.06u as=0.4657p ps=2.54u w=0.66u l=0.13u
X37 uo_out[2].t0 a_18941_61585# VGND.t41 VGND.t40 sg13_lv_nmos ad=0.1406p pd=1.12u as=0.2516p ps=2.16u w=0.74u l=0.13u
X38 ring_0/inverter_ring_0/skullfet_inverter_17.A ring_0/inverter_ring_0/skullfet_inverter_18.A VDPWR.t6 VDPWR.t5 sg13_lv_pmos ad=6.2694p pd=26.64u as=4.4307p ps=10.9u w=4.05u l=0.4u
X39 VGND.t63 ring_0/inverter_ring_0/skullfet_inverter_14.A ring_0/inverter_ring_0/skullfet_inverter_13.A VGND.t62 sg13_lv_nmos ad=4.2687p pd=10.82u as=6.4314p ps=26.72u w=4.05u l=0.4u
X40 uo_out[2].t1 a_18941_61585# VDPWR.t17 VDPWR.t2 sg13_lv_pmos ad=0.2156p pd=1.505u as=0.3808p ps=2.92u w=1.12u l=0.13u
X41 VGND.t109 ring_0/inverter_ring_0/skullfet_inverter_2.A ring_0/inverter_ring_0/skullfet_inverter_1.A VGND.t108 sg13_lv_nmos ad=4.2687p pd=10.82u as=6.4314p ps=26.72u w=4.05u l=0.4u
X42 a_19247_61578# a_19947_61366# a_19897_61402# VDPWR.t2 sg13_lv_pmos ad=0.19115p pd=1.565u as=52.5f ps=0.67u w=0.42u l=0.13u
X43 VDPWR.t78 ring_0/inverter_ring_0/skullfet_inverter_5.A VDPWR.t77 VDPWR.t76 sg13_lv_pmos ad=6.2694p pd=26.64u as=0 ps=0 w=4.05u l=0.4u
X44 VGND.t98 ring_0/inverter_ring_0/skullfet_inverter_11.A ring_0/inverter_ring_0/skullfet_inverter_10.A VGND.t97 sg13_lv_nmos ad=4.2687p pd=10.82u as=6.4314p ps=26.72u w=4.05u l=0.4u
X45 VDPWR.t16 a_18941_61585# uo_out[2].t1 VDPWR.t2 sg13_lv_pmos ad=0.3808p pd=2.92u as=0.2156p ps=1.505u w=1.12u l=0.13u
X46 VGND.t111 ring_0/inverter_ring_0/skullfet_inverter_0.A ring_0/inverter_ring_0/skullfet_inverter_0.Y VGND.t110 sg13_lv_nmos ad=4.2687p pd=10.82u as=6.4314p ps=26.72u w=4.05u l=0.4u
X47 a_20876_61559# a_19947_61366# a_20790_61326# VDPWR.t2 sg13_lv_pmos ad=79.8f pd=0.8u as=0.1428p ps=1.52u w=0.42u l=0.13u
X48 a_18106_61326# a_17206_61250# a_17996_61559# VDPWR.t2 sg13_lv_pmos ad=54.6f pd=0.68u as=79.8f ps=0.8u w=0.42u l=0.13u
X49 VGND.t113 ring_0/inverter_ring_0/skullfet_inverter_3.A ring_0/inverter_ring_0/skullfet_inverter_2.A VGND.t112 sg13_lv_nmos ad=4.2687p pd=10.82u as=6.4314p ps=26.72u w=4.05u l=0.4u
X50 VGND.t85 ring_0/inverter_ring_0/skullfet_inverter_16.A ring_0/inverter_ring_0/skullfet_inverter_15.A VGND.t84 sg13_lv_nmos ad=4.2687p pd=10.82u as=6.4314p ps=26.72u w=4.05u l=0.4u
X51 ring_0/inverter_ring_0/skullfet_inverter_18.A ring_0/inverter_ring_0/skullfet_inverter_19.A VDPWR.t48 VDPWR.t47 sg13_lv_pmos ad=6.2694p pd=26.64u as=4.4307p ps=10.9u w=4.05u l=0.4u
X52 a_19947_61366# a_20086_61250# a_20399_61281# VDPWR.t2 sg13_lv_pmos ad=0.3864p pd=2.93u as=0.43102p ps=2.145u w=1.12u l=0.13u
X53 ring_0/inverter_ring_0/skullfet_inverter_9.A ring_0/inverter_ring_0/skullfet_inverter_10.A VDPWR.t27 VDPWR.t26 sg13_lv_pmos ad=6.2694p pd=26.64u as=4.4307p ps=10.9u w=4.05u l=0.4u
X54 VGND.t81 a_22511_61578# freq_divider_0.sg13g2_dfrbp_2_2.D VGND.t80 sg13_lv_nmos ad=0.2516p pd=2.16u as=0.1406p ps=1.12u w=0.74u l=0.13u
X55 VGND.t74 ring_0/inverter_ring_0/skullfet_inverter_15.A ring_0/inverter_ring_0/skullfet_inverter_14.A VGND.t73 sg13_lv_nmos ad=4.2687p pd=10.82u as=6.4314p ps=26.72u w=4.05u l=0.4u
X56 VGND.t70 a_22205_61585# uo_out[1].t0 VGND.t69 sg13_lv_nmos ad=0.2516p pd=2.16u as=0.1406p ps=1.12u w=0.74u l=0.13u
X57 a_19681_61717# a_19247_61578# a_19587_61717# VGND.t106 sg13_lv_nmos ad=37.8f pd=0.6u as=0.1428p ps=1.52u w=0.42u l=0.13u
X58 a_17996_61559# a_17067_61366# a_17910_61326# VDPWR.t2 sg13_lv_pmos ad=79.8f pd=0.8u as=0.1428p ps=1.52u w=0.42u l=0.13u
X59 a_19955_61640# a_20086_61250# a_19247_61578# VDPWR.t2 sg13_lv_pmos ad=0.34p pd=2.68u as=0.19115p ps=1.565u w=1u l=0.13u
X60 a_20986_61326# a_20086_61250# a_20876_61559# VDPWR.t2 sg13_lv_pmos ad=54.6f pd=0.68u as=79.8f ps=0.8u w=0.42u l=0.13u
X61 a_16895_61402# freq_divider_0.sg13g2_dfrbp_2_0.RESET_B a_16707_61717# VDPWR.t2 sg13_lv_pmos ad=0.25605p pd=1.935u as=79.8f ps=0.8u w=0.42u l=0.13u
X62 a_24140_61559# a_23211_61366# a_24054_61326# VDPWR.t2 sg13_lv_pmos ad=79.8f pd=0.8u as=0.1428p ps=1.52u w=0.42u l=0.13u
X63 a_17067_61366# a_17206_61250# a_17519_61281# VDPWR.t2 sg13_lv_pmos ad=0.3864p pd=2.93u as=0.43102p ps=2.145u w=1.12u l=0.13u
X64 a_23039_61402# freq_divider_0.sg13g2_dfrbp_2_0.RESET_B a_22851_61717# VDPWR.t2 sg13_lv_pmos ad=0.25605p pd=1.935u as=79.8f ps=0.8u w=0.42u l=0.13u
X65 a_17067_61366# a_17206_61250# a_17524_61632# VGND.t56 sg13_lv_nmos ad=0.2516p pd=2.16u as=0.43315p ps=2.205u w=0.74u l=0.13u
X66 VDPWR.t54 freq_divider_0.sg13g2_dfrbp_2_0.D a_17910_61326# VDPWR.t2 sg13_lv_pmos ad=0.1428p pd=1.52u as=79.8f ps=0.8u w=0.42u l=0.13u
X67 freq_divider_0.sg13g2_dfrbp_2_1.D a_19247_61578# VGND.t102 VGND.t105 sg13_lv_nmos ad=0.1406p pd=1.12u as=0.1331p ps=1.12u w=0.74u l=0.13u
X68 a_21132_61704# a_19955_61640# a_20747_61559# VGND.t66 sg13_lv_nmos ad=38.85f pd=0.605u as=0.1596p ps=1.6u w=0.42u l=0.13u
X69 a_17910_61326# a_17206_61250# a_17996_61559# VGND.t55 sg13_lv_nmos ad=0.1296p pd=1.52u as=81f ps=0.81u w=0.42u l=0.13u
X70 a_19845_61717# a_20086_61250# a_19247_61578# VGND.t77 sg13_lv_nmos ad=0.1428p pd=1.52u as=0.12665p ps=1.145u w=0.42u l=0.13u
X71 a_16965_61717# a_16707_61717# VGND.t31 VGND.t30 sg13_lv_nmos ad=0.1428p pd=1.52u as=79.8f ps=0.8u w=0.42u l=0.13u
X72 a_19897_61402# a_19587_61717# a_19775_61402# VDPWR.t2 sg13_lv_pmos ad=52.5f pd=0.67u as=0.25605p ps=1.935u w=0.42u l=0.13u
X73 a_20790_61326# a_20086_61250# a_20876_61559# VGND.t76 sg13_lv_nmos ad=0.1296p pd=1.52u as=81f ps=0.81u w=0.42u l=0.13u
X74 a_18252_61704# a_17075_61640# a_17867_61559# VGND.t107 sg13_lv_nmos ad=38.85f pd=0.605u as=0.1596p ps=1.6u w=0.42u l=0.13u
X75 VGND.t104 a_19247_61578# freq_divider_0.sg13g2_dfrbp_2_1.D VGND.t103 sg13_lv_nmos ad=0.2516p pd=2.16u as=0.1406p ps=1.12u w=0.74u l=0.13u
X76 VGND.t39 a_18941_61585# uo_out[2].t0 VGND.t38 sg13_lv_nmos ad=0.2516p pd=2.16u as=0.1406p ps=1.12u w=0.74u l=0.13u
X77 a_24140_61559# a_23211_61366# a_24011_61559# VGND.t5 sg13_lv_nmos ad=81f pd=0.81u as=0.2163p ps=1.87u w=0.42u l=0.13u
X78 a_16965_61717# a_17206_61250# a_16367_61578# VGND.t54 sg13_lv_nmos ad=0.1428p pd=1.52u as=0.12665p ps=1.145u w=0.42u l=0.13u
X79 VGND.t102 a_19247_61578# a_18941_61585# VGND.t101 sg13_lv_nmos ad=0.1331p pd=1.12u as=0.2176p ps=1.96u w=0.64u l=0.13u
X80 a_17996_61559# freq_divider_0.sg13g2_dfrbp_2_0.RESET_B VDPWR.t9 VDPWR.t2 sg13_lv_pmos ad=0.147p pd=1.54u as=0.1563p ps=1.22u w=0.42u l=0.13u
X81 VDPWR.t12 a_19955_61640# a_20986_61326# VDPWR.t2 sg13_lv_pmos ad=0.1563p pd=1.22u as=54.6f ps=0.68u w=0.42u l=0.13u
X82 a_20790_61326# freq_divider_0.sg13g2_dfrbp_2_1.D a_21529_61717# VGND.t42 sg13_lv_nmos ad=0.1428p pd=1.52u as=60.89999f ps=0.71u w=0.42u l=0.13u
X83 VDPWR.t13 a_17996_61559# a_17075_61640# VDPWR.t2 sg13_lv_pmos ad=0.36237p pd=2.605u as=0.34p ps=2.68u w=1u l=0.13u
X84 VGND.t65 ring_0/inverter_ring_0/skullfet_inverter_0.Y ring_0/inverter_ring_0/skullfet_inverter_19.A VGND.t64 sg13_lv_nmos ad=4.2687p pd=10.82u as=6.4314p ps=26.72u w=4.05u l=0.4u
X85 a_24140_61559# freq_divider_0.sg13g2_dfrbp_2_0.RESET_B VDPWR.t10 VDPWR.t2 sg13_lv_pmos ad=0.147p pd=1.54u as=0.1563p ps=1.22u w=0.42u l=0.13u
X86 ring_0/inverter_ring_0/skullfet_inverter_5.A ring_0/inverter_ring_0/skullfet_inverter_6.A VDPWR.t15 VDPWR.t14 sg13_lv_pmos ad=6.2694p pd=26.64u as=4.4307p ps=10.9u w=4.05u l=0.4u
X87 VDPWR.t61 a_19247_61578# freq_divider_0.sg13g2_dfrbp_2_1.D VDPWR.t2 sg13_lv_pmos ad=0.2014p pd=1.53u as=0.2128p ps=1.5u w=1.12u l=0.13u
X88 VGND.t68 ring_0/inverter_ring_0/skullfet_inverter_8.A ring_0/inverter_ring_0/skullfet_inverter_7.A VGND.t67 sg13_lv_nmos ad=4.2687p pd=10.82u as=6.4314p ps=26.72u w=4.05u l=0.4u
X89 a_20399_61281# uo_out[1].t2 a_20086_61250# VDPWR.t2 sg13_lv_pmos ad=0.43102p pd=2.145u as=0.3808p ps=2.92u w=1.12u l=0.13u
X90 VDPWR.t7 a_24140_61559# a_23219_61640# VDPWR.t2 sg13_lv_pmos ad=0.36237p pd=2.605u as=0.34p ps=2.68u w=1u l=0.13u
X91 a_23219_61640# a_23350_61250# a_22511_61578# VDPWR.t2 sg13_lv_pmos ad=0.34p pd=2.68u as=0.19115p ps=1.565u w=1u l=0.13u
X92 VDPWR.t9 a_17075_61640# a_18106_61326# VDPWR.t2 sg13_lv_pmos ad=0.1563p pd=1.22u as=54.6f ps=0.68u w=0.42u l=0.13u
X93 a_19587_61717# a_19247_61578# VDPWR.t61 VDPWR.t2 sg13_lv_pmos ad=79.8f pd=0.8u as=0.2014p ps=1.53u w=0.42u l=0.13u
X94 VGND.t44 ring_0/inverter_ring_0/skullfet_inverter_1.A ring_0/inverter_ring_0/skullfet_inverter_0.A VGND.t43 sg13_lv_nmos ad=4.2687p pd=10.82u as=6.4314p ps=26.72u w=4.05u l=0.4u
X95 ring_0/inverter_ring_0/skullfet_inverter_10.A ring_0/inverter_ring_0/skullfet_inverter_11.A VDPWR.t56 VDPWR.t55 sg13_lv_pmos ad=6.2694p pd=26.64u as=4.4307p ps=10.9u w=4.05u l=0.4u
X96 VDPWR.t37 a_22205_61585# uo_out[1].t1 VDPWR.t2 sg13_lv_pmos ad=0.3808p pd=2.92u as=0.2156p ps=1.505u w=1.12u l=0.13u
X97 a_17519_61281# uo_out[2].t2 a_17206_61250# VDPWR.t2 sg13_lv_pmos ad=0.43102p pd=2.145u as=0.3808p ps=2.92u w=1.12u l=0.13u
X98 VGND.t115 ring_0/inverter_ring_0/skullfet_inverter_12.A ring_0/inverter_ring_0/skullfet_inverter_11.A VGND.t114 sg13_lv_nmos ad=4.2687p pd=10.82u as=6.4314p ps=26.72u w=4.05u l=0.4u
X99 a_23109_61717# a_23350_61250# a_22511_61578# VGND.t16 sg13_lv_nmos ad=0.1428p pd=1.52u as=0.12665p ps=1.145u w=0.42u l=0.13u
X100 ring_0/inverter_ring_0/skullfet_inverter_0.A ring_0/inverter_ring_0/skullfet_inverter_1.A VDPWR.t20 VDPWR.t19 sg13_lv_pmos ad=6.2694p pd=26.64u as=4.4307p ps=10.9u w=4.05u l=0.4u
X101 ring_0/inverter_ring_0/skullfet_inverter_16.A ring_0/inverter_ring_0/skullfet_inverter_17.A ring_0/inverter_ring_0/skullfet_inverter_17.VDPWR ring_0/inverter_ring_0/skullfet_inverter_17.VDPWR sg13_lv_pmos ad=6.2694p pd=26.64u as=4.4307p ps=10.9u w=4.05u l=0.4u
X102 a_21980_61316# a_21980_61316# VGND.t10 VGND.t117 sg13_lv_nmos ad=0.111p pd=1.34u as=0.20432p ps=1.585u w=0.3u l=0.13u
X103 VGND.t25 freq_divider_0.sg13g2_dfrbp_2_0.RESET_B a_19681_61717# VGND.t24 sg13_lv_nmos ad=79.8f pd=0.8u as=37.8f ps=0.6u w=0.42u l=0.13u
X104 ring_0/inverter_ring_0/skullfet_inverter_2.A ring_0/inverter_ring_0/skullfet_inverter_3.A VDPWR.t70 VDPWR.t69 sg13_lv_pmos ad=6.2694p pd=26.64u as=4.4307p ps=10.9u w=4.05u l=0.4u
X105 ring_0/inverter_ring_0/skullfet_inverter_15.A ring_0/inverter_ring_0/skullfet_inverter_16.A VDPWR.t46 VDPWR.t45 sg13_lv_pmos ad=6.2694p pd=26.64u as=4.4307p ps=10.9u w=4.05u l=0.4u
X106 a_21529_61717# freq_divider_0.sg13g2_dfrbp_2_0.RESET_B VGND.t23 VGND.t22 sg13_lv_nmos ad=60.89999f pd=0.71u as=0.1626p ps=1.415u w=0.42u l=0.13u
X107 VGND.t23 a_20876_61559# a_19955_61640# VGND.t75 sg13_lv_nmos ad=0.1626p pd=1.415u as=0.2516p ps=2.16u w=0.74u l=0.13u
X108 uo_out[3].t0 a_16061_61585# VGND.t48 VGND.t47 sg13_lv_nmos ad=0.1406p pd=1.12u as=0.2516p ps=2.16u w=0.74u l=0.13u
X109 a_20404_61632# uo_out[1].t2 a_20086_61250# VGND.t61 sg13_lv_nmos ad=0.43315p pd=2.205u as=0.2516p ps=2.16u w=0.74u l=0.13u
X110 VGND.t10 a_21856_61617# a_21777_61520# VGND.t9 sg13_lv_nmos ad=0.20432p pd=1.585u as=0.27427p ps=2.28u w=0.795u l=0.13u
X111 a_16367_61578# a_17067_61366# a_17017_61402# VDPWR.t2 sg13_lv_pmos ad=0.19115p pd=1.565u as=52.5f ps=0.67u w=0.42u l=0.13u
X112 ring_0/inverter_ring_0/skullfet_inverter_14.A ring_0/inverter_ring_0/skullfet_inverter_15.A VDPWR.t39 VDPWR.t38 sg13_lv_pmos ad=6.2694p pd=26.64u as=4.4307p ps=10.9u w=4.05u l=0.4u
X113 VGND.t100 VDPWR.t57 ring_0/inverter_ring_0/skullfet_inverter_3.A VGND.t99 sg13_lv_nmos ad=4.2687p pd=10.82u as=6.4314p ps=26.72u w=4.05u l=0.4u
X114 VDPWR.t10 a_23219_61640# a_24250_61326# VDPWR.t2 sg13_lv_pmos ad=0.1563p pd=1.22u as=54.6f ps=0.68u w=0.42u l=0.13u
X115 a_24250_61326# a_23350_61250# a_24140_61559# VDPWR.t2 sg13_lv_pmos ad=54.6f pd=0.68u as=79.8f ps=0.8u w=0.42u l=0.13u
X116 a_20790_61326# freq_divider_0.sg13g2_dfrbp_2_0.RESET_B VDPWR.t8 VDPWR.t2 sg13_lv_pmos ad=79.8f pd=0.8u as=0.36237p ps=2.605u w=0.42u l=0.13u
X117 a_24054_61326# freq_divider_0.sg13g2_dfrbp_2_2.D a_24793_61717# VGND.t95 sg13_lv_nmos ad=0.1428p pd=1.52u as=60.89999f ps=0.71u w=0.42u l=0.13u
X118 a_22511_61578# a_23211_61366# a_23219_61640# VGND.t4 sg13_lv_nmos ad=0.12665p pd=1.145u as=0.3473p ps=2.71u w=0.74u l=0.13u
X119 a_18649_61717# freq_divider_0.sg13g2_dfrbp_2_0.RESET_B VGND.t21 VGND.t20 sg13_lv_nmos ad=60.89999f pd=0.71u as=0.1626p ps=1.415u w=0.42u l=0.13u
X120 freq_divider_0.sg13g2_dfrbp_2_0.D a_16367_61578# VDPWR.t49 VDPWR.t2 sg13_lv_pmos ad=0.2128p pd=1.5u as=0.2083p ps=1.5u w=1.12u l=0.13u
X121 a_17524_61632# uo_out[2].t2 a_17206_61250# VGND.t56 sg13_lv_nmos ad=0.43315p pd=2.205u as=0.2516p ps=2.16u w=0.74u l=0.13u
X122 VDPWR.t60 a_19247_61578# a_18941_61585# VDPWR.t2 sg13_lv_pmos ad=0.2083p pd=1.5u as=0.34p ps=2.68u w=1u l=0.13u
X123 VGND.t52 ring_0/inverter_ring_0/skullfet_inverter_7.A ring_0/inverter_ring_0/skullfet_inverter_6.A VGND.t51 sg13_lv_nmos ad=4.2687p pd=10.82u as=6.4314p ps=26.72u w=4.05u l=0.4u
X124 a_24793_61717# freq_divider_0.sg13g2_dfrbp_2_0.RESET_B VGND.t14 VGND.t19 sg13_lv_nmos ad=60.89999f pd=0.71u as=0.1626p ps=1.415u w=0.42u l=0.13u
X125 a_17075_61640# a_17206_61250# a_16367_61578# VDPWR.t2 sg13_lv_pmos ad=0.34p pd=2.68u as=0.19115p ps=1.565u w=1u l=0.13u
X126 uo_out[3].t1 a_16061_61585# VDPWR.t22 VDPWR.t2 sg13_lv_pmos ad=0.2156p pd=1.505u as=0.3808p ps=2.92u w=1.12u l=0.13u
X127 a_24054_61326# a_23350_61250# a_24140_61559# VGND.t15 sg13_lv_nmos ad=0.1296p pd=1.52u as=81f ps=0.81u w=0.42u l=0.13u
X128 VDPWR.t21 a_16061_61585# uo_out[3].t1 VDPWR.t2 sg13_lv_pmos ad=0.3808p pd=2.92u as=0.2156p ps=1.505u w=1.12u l=0.13u
X129 a_22511_61578# a_23211_61366# a_23161_61402# VDPWR.t2 sg13_lv_pmos ad=0.19115p pd=1.565u as=52.5f ps=0.67u w=0.42u l=0.13u
X130 ring_0/inverter_ring_0/skullfet_inverter_8.A ring_0/inverter_ring_0/skullfet_inverter_9.A VDPWR.t4 VDPWR.t3 sg13_lv_pmos ad=6.2694p pd=26.64u as=4.4307p ps=10.9u w=4.05u l=0.4u
X131 uo_out[1].t1 a_22205_61585# VDPWR.t36 VDPWR.t2 sg13_lv_pmos ad=0.2156p pd=1.505u as=0.3808p ps=2.92u w=1.12u l=0.13u
X132 ring_0/inverter_ring_0/skullfet_inverter_7.A ring_0/inverter_ring_0/skullfet_inverter_8.A VDPWR.t35 VDPWR.t34 sg13_lv_pmos ad=6.2694p pd=26.64u as=4.4307p ps=10.9u w=4.05u l=0.4u
X133 VGND.t60 ring_0/inverter_ring_0/skullfet_inverter_10.A ring_0/inverter_ring_0/skullfet_inverter_9.A VGND.t59 sg13_lv_nmos ad=4.2687p pd=10.82u as=6.4314p ps=26.72u w=4.05u l=0.4u
X134 VGND.t14 a_24140_61559# a_23219_61640# VGND.t13 sg13_lv_nmos ad=0.1626p pd=1.415u as=0.2516p ps=2.16u w=0.74u l=0.13u
X135 a_23668_61632# uo_out[0].t0 a_23350_61250# VGND.t6 sg13_lv_nmos ad=0.43315p pd=2.205u as=0.2516p ps=2.16u w=0.74u l=0.13u
X136 freq_divider_0.sg13g2_dfrbp_2_2.D a_22511_61578# VDPWR.t41 VDPWR.t2 sg13_lv_pmos ad=0.2128p pd=1.5u as=0.2083p ps=1.5u w=1.12u l=0.13u
X137 a_16801_61717# a_16367_61578# a_16707_61717# VGND.t93 sg13_lv_nmos ad=37.8f pd=0.6u as=0.1428p ps=1.52u w=0.42u l=0.13u
X138 a_19247_61578# a_19947_61366# a_19955_61640# VGND.t49 sg13_lv_nmos ad=0.12665p pd=1.145u as=0.3473p ps=2.71u w=0.74u l=0.13u
X139 ring_0/inverter_ring_0/skullfet_inverter_1.A ring_0/inverter_ring_0/skullfet_inverter_2.A VDPWR.t66 VDPWR.t65 sg13_lv_pmos ad=6.2694p pd=26.64u as=4.4307p ps=10.9u w=4.05u l=0.4u
X140 ring_0/inverter_ring_0/skullfet_inverter_13.A ring_0/inverter_ring_0/skullfet_inverter_14.A VDPWR.t30 VDPWR.t29 sg13_lv_pmos ad=6.2694p pd=26.64u as=4.4307p ps=10.9u w=4.05u l=0.4u
X141 a_19775_61402# freq_divider_0.sg13g2_dfrbp_2_0.RESET_B a_19587_61717# VDPWR.t2 sg13_lv_pmos ad=0.25605p pd=1.935u as=79.8f ps=0.8u w=0.42u l=0.13u
X142 ring_0/inverter_ring_0/skullfet_inverter_0.Y ring_0/inverter_ring_0/skullfet_inverter_0.A VDPWR.t68 VDPWR.t67 sg13_lv_pmos ad=6.2694p pd=26.64u as=4.4307p ps=10.9u w=4.05u l=0.4u
X143 freq_divider_0.sg13g2_dfrbp_2_0.D a_16367_61578# VGND.t89 VGND.t92 sg13_lv_nmos ad=0.1406p pd=1.12u as=0.1331p ps=1.12u w=0.74u l=0.13u
X144 a_17910_61326# freq_divider_0.sg13g2_dfrbp_2_0.D a_18649_61717# VGND.t96 sg13_lv_nmos ad=0.1428p pd=1.52u as=60.89999f ps=0.71u w=0.42u l=0.13u
X145 a_16367_61578# a_17067_61366# a_17075_61640# VGND.t57 sg13_lv_nmos ad=0.12665p pd=1.145u as=0.3473p ps=2.71u w=0.74u l=0.13u
X146 VGND.t18 freq_divider_0.sg13g2_dfrbp_2_0.RESET_B a_22945_61717# VGND.t17 sg13_lv_nmos ad=79.8f pd=0.8u as=37.8f ps=0.6u w=0.42u l=0.13u
X147 a_17017_61402# a_16707_61717# a_16895_61402# VDPWR.t2 sg13_lv_pmos ad=52.5f pd=0.67u as=0.25605p ps=1.935u w=0.42u l=0.13u
X148 VGND.t12 ring_0/inverter_ring_0/skullfet_inverter_18.A ring_0/inverter_ring_0/skullfet_inverter_17.A VGND.t11 sg13_lv_nmos ad=4.2687p pd=10.82u as=6.4314p ps=26.72u w=4.05u l=0.4u
X149 VGND.t91 a_16367_61578# freq_divider_0.sg13g2_dfrbp_2_0.D VGND.t90 sg13_lv_nmos ad=0.2516p pd=2.16u as=0.1406p ps=1.12u w=0.74u l=0.13u
X150 VGND.t36 ring_0/inverter_ring_0/skullfet_inverter_6.A ring_0/inverter_ring_0/skullfet_inverter_5.A VGND.t35 sg13_lv_nmos ad=4.2687p pd=10.82u as=6.4314p ps=26.72u w=4.05u l=0.4u
X151 VGND.t46 a_16061_61585# uo_out[3].t0 VGND.t45 sg13_lv_nmos ad=0.2516p pd=2.16u as=0.1406p ps=1.12u w=0.74u l=0.13u
X152 a_19845_61717# a_19587_61717# VGND.t25 VGND.t24 sg13_lv_nmos ad=0.1428p pd=1.52u as=79.8f ps=0.8u w=0.42u l=0.13u
X153 VGND.t119 ring_0/inverter_ring_0/skullfet_inverter_5.A VDPWR.t75 VGND.t118 sg13_lv_nmos ad=4.2687p pd=10.82u as=6.4314p ps=26.72u w=4.05u l=0.4u
X154 VGND.t89 a_16367_61578# a_16061_61585# VGND.t88 sg13_lv_nmos ad=0.1331p pd=1.12u as=0.2176p ps=1.96u w=0.64u l=0.13u
X155 a_23663_61281# uo_out[0].t0 a_23350_61250# VDPWR.t2 sg13_lv_pmos ad=0.43102p pd=2.145u as=0.3808p ps=2.92u w=1.12u l=0.13u
X156 a_19947_61366# a_20086_61250# a_20404_61632# VGND.t61 sg13_lv_nmos ad=0.2516p pd=2.16u as=0.43315p ps=2.205u w=0.74u l=0.13u
X157 VGND.t87 ring_0/inverter_ring_0/skullfet_inverter_19.A ring_0/inverter_ring_0/skullfet_inverter_18.A VGND.t86 sg13_lv_nmos ad=4.2687p pd=10.82u as=6.4314p ps=26.72u w=4.05u l=0.4u
X158 VDPWR.t18 freq_divider_0.sg13g2_dfrbp_2_1.D a_20790_61326# VDPWR.t2 sg13_lv_pmos ad=0.1428p pd=1.52u as=79.8f ps=0.8u w=0.42u l=0.13u
X159 freq_divider_0.sg13g2_dfrbp_2_2.D a_22511_61578# VGND.t79 VGND.t78 sg13_lv_nmos ad=0.1406p pd=1.12u as=0.1331p ps=1.12u w=0.74u l=0.13u
R0 VGND.n445 VGND.n59 36337.9
R1 VGND.n455 VGND.n446 26006.8
R2 VGND.n452 VGND.n446 20289.4
R3 VGND.t99 VGND.n207 19416.2
R4 VGND.n648 VGND.n647 17662.9
R5 VGND.n421 VGND.n71 15262.5
R6 VGND.n446 VGND.n445 12285.4
R7 VGND.n62 VGND.n59 12285.4
R8 VGND.n647 VGND.n646 12279.6
R9 VGND.n441 VGND.t35 12039.2
R10 VGND.t51 VGND.n64 10402.1
R11 VGND.n304 VGND.n294 10052.7
R12 VGND.n649 VGND.n648 10011.4
R13 VGND.n291 VGND.n206 9840.79
R14 VGND.n442 VGND.n62 9066.9
R15 VGND.n514 VGND.n441 7844.55
R16 VGND.n455 VGND.n443 7498.6
R17 VGND.n440 VGND.n439 7474.99
R18 VGND.n292 VGND.n291 7291.79
R19 VGND.t118 VGND.n421 7169.54
R20 VGND.n652 VGND.n66 6899.39
R21 VGND.n656 VGND.n61 6851.13
R22 VGND.n70 VGND.n66 6429.23
R23 VGND.n514 VGND.t112 6051.63
R24 VGND.n445 VGND.n444 6014.02
R25 VGND.n646 VGND.n645 5872.62
R26 VGND.n444 VGND.n443 5699.78
R27 VGND.n646 VGND.n70 5321.16
R28 VGND.n421 VGND.n208 5298.87
R29 VGND.n658 VGND.n657 4953.11
R30 VGND.n648 VGND.n70 4950.06
R31 VGND.n513 VGND.n512 4945.91
R32 VGND.n308 VGND.n292 3511.45
R33 VGND.n291 VGND.n205 3475.34
R34 VGND.n299 VGND.n298 3284.18
R35 VGND.n646 VGND.n72 3154.9
R36 VGND.n441 VGND.n440 3153.12
R37 VGND.n304 VGND.n295 2376.2
R38 VGND.n514 VGND.n205 2220.92
R39 VGND.n649 VGND.n69 2091.57
R40 VGND.n654 VGND.n64 1946.24
R41 VGND.n444 VGND.n442 1880.71
R42 VGND.n207 VGND.n71 1835.32
R43 VGND.n84 VGND.n72 1763.01
R44 VGND.n514 VGND.n442 1734.38
R45 VGND.n441 VGND.n64 1470.05
R46 VGND.n297 VGND.t110 1368.89
R47 VGND.t86 VGND.n299 1347.06
R48 VGND.n299 VGND.t64 1194.61
R49 VGND.n422 VGND.t118 1123.79
R50 VGND.n647 VGND.n71 1061.65
R51 VGND.n298 VGND.n297 977.779
R52 VGND.n61 VGND.t0 964.287
R53 VGND.n514 VGND.n206 905.553
R54 VGND.t0 VGND.n59 876.317
R55 VGND.n656 VGND.n62 837.723
R56 VGND.n305 VGND.n292 814.62
R57 VGND.n484 VGND.n481 744.615
R58 VGND.n667 VGND.n5 744.615
R59 VGND.n53 VGND.n52 744.615
R60 VGND.n454 VGND.t73 675.663
R61 VGND.n439 VGND.t112 656.004
R62 VGND.n645 VGND.t35 656.004
R63 VGND.n440 VGND.t99 615.229
R64 VGND.n290 VGND.n206 608.424
R65 VGND.n451 VGND.n59 575.212
R66 VGND.n440 VGND.n208 498.868
R67 VGND.n484 VGND.t17 480
R68 VGND.n667 VGND.t24 480
R69 VGND.n52 VGND.t30 480
R70 VGND.n651 VGND.t7 455.887
R71 VGND.n84 VGND.t51 427.755
R72 VGND.n514 VGND.n513 402.269
R73 VGND.n657 VGND.n656 395.865
R74 VGND.n514 VGND.n443 392.892
R75 VGND.n452 VGND.t62 372.399
R76 VGND.n298 VGND.n295 344.149
R77 VGND.t64 VGND.n294 335.173
R78 VGND.t7 VGND.n650 330.428
R79 VGND.n308 VGND.t2 318.406
R80 VGND.n453 VGND.n452 307.757
R81 VGND.n207 VGND.n205 278.079
R82 VGND.n480 VGND.t80 260.005
R83 VGND.n16 VGND.t103 260.005
R84 VGND.t90 VGND.n54 260.005
R85 VGND.t78 VGND.n478 234.738
R86 VGND.t105 VGND.n14 234.738
R87 VGND.n56 VGND.t92 234.738
R88 VGND.n491 VGND.t83 232.869
R89 VGND.n25 VGND.t101 232.869
R90 VGND.t88 VGND.n43 232.869
R91 VGND.n290 VGND.t108 231.615
R92 VGND.t9 VGND.n473 228.233
R93 VGND.t43 VGND.n305 227.947
R94 VGND.n442 VGND.n64 226.054
R95 VGND.n498 VGND.t75 200.339
R96 VGND.n31 VGND.t116 200.339
R97 VGND.n460 VGND.t13 200.339
R98 VGND.n496 VGND.t42 195.942
R99 VGND.n12 VGND.t96 194.969
R100 VGND.n655 VGND.n654 194.851
R101 VGND.n495 VGND.t69 185.124
R102 VGND.n29 VGND.t38 185.124
R103 VGND.t45 VGND.n41 185.124
R104 VGND.t71 VGND.n476 184.825
R105 VGND.t40 VGND.n12 184.825
R106 VGND.n512 VGND.t95 180.052
R107 VGND.n476 VGND.t117 172.145
R108 VGND.n658 VGND.t47 169.907
R109 VGND.n304 VGND.t11 164.255
R110 VGND.t66 VGND.t28 159.763
R111 VGND.t107 VGND.t32 159.763
R112 VGND.t53 VGND.t26 159.763
R113 VGND.t50 VGND.n469 156.929
R114 VGND.t58 VGND.n9 156.929
R115 VGND.t5 VGND.n457 156.929
R116 VGND.n502 VGND.t76 154.614
R117 VGND.n35 VGND.t55 154.614
R118 VGND.n463 VGND.t15 154.614
R119 VGND.n72 VGND.n66 151.276
R120 VGND.t22 VGND.n471 149.62
R121 VGND.t20 VGND.n11 149.62
R122 VGND.t19 VGND.n459 149.62
R123 VGND.t17 VGND.t4 138.463
R124 VGND.t24 VGND.t49 138.463
R125 VGND.t30 VGND.t57 138.463
R126 VGND.n513 VGND.t84 132.323
R127 VGND.n654 VGND.t67 128.216
R128 VGND.n657 VGND.n59 122.921
R129 VGND.t110 VGND.n295 113.026
R130 VGND.n481 VGND.t82 110.237
R131 VGND.t106 VGND.n5 110.237
R132 VGND.t93 VGND.n53 110.237
R133 VGND.n469 VGND.n5 106.212
R134 VGND.n53 VGND.n9 106.212
R135 VGND.n481 VGND.n457 106.212
R136 VGND.t76 VGND.n501 100.478
R137 VGND.t55 VGND.n34 100.478
R138 VGND.t15 VGND.n462 100.478
R139 VGND.n502 VGND.t50 99.7516
R140 VGND.n35 VGND.t58 99.7516
R141 VGND.n463 VGND.t5 99.7516
R142 VGND.n650 VGND.n649 95.8456
R143 VGND.t67 VGND.n653 95.5275
R144 VGND.n498 VGND.t22 93.8297
R145 VGND.n31 VGND.t20 93.8297
R146 VGND.n460 VGND.t19 93.8297
R147 VGND.t117 VGND.n473 86.222
R148 VGND.n308 VGND.n290 84.6642
R149 VGND.n653 VGND.n652 83.8532
R150 VGND.n501 VGND.t66 75.5501
R151 VGND.n34 VGND.t107 75.5501
R152 VGND.n462 VGND.t53 75.5501
R153 VGND.t6 VGND.t16 73.8467
R154 VGND.t61 VGND.t77 73.8467
R155 VGND.t56 VGND.t54 73.8467
R156 VGND.n495 VGND.t71 73.5423
R157 VGND.n29 VGND.t40 73.5423
R158 VGND.t47 VGND.n41 73.5423
R159 VGND.t69 VGND.n491 73.244
R160 VGND.t38 VGND.n25 73.244
R161 VGND.n43 VGND.t45 73.244
R162 VGND.n307 VGND.t43 72.396
R163 VGND.t73 VGND.n453 65.0575
R164 VGND.t62 VGND.n451 63.8663
R165 VGND.n656 VGND.t114 63.5677
R166 VGND.t42 VGND.n471 63.3986
R167 VGND.t96 VGND.n11 63.3986
R168 VGND.n459 VGND.t95 63.3986
R169 VGND.t13 VGND.n458 59.0031
R170 VGND.t75 VGND.n470 59.0031
R171 VGND.t116 VGND.n10 59.0031
R172 VGND.n654 VGND.t97 55.0827
R173 VGND.t108 VGND.n204 51.425
R174 VGND.n515 VGND.t2 51.1311
R175 VGND.t82 VGND.n480 48.4827
R176 VGND.n16 VGND.t106 48.4827
R177 VGND.n54 VGND.t93 48.4827
R178 VGND.t114 VGND.n655 47.9255
R179 VGND.n651 VGND.t59 47.7166
R180 VGND.n651 VGND.n67 44.7738
R181 VGND.n309 VGND.t11 44.7032
R182 VGND.t84 VGND.n455 42.4247
R183 VGND.n67 VGND.t97 41.6077
R184 VGND.n303 VGND.t86 38.7252
R185 VGND.t28 VGND.n470 38.7147
R186 VGND.t32 VGND.n10 38.7147
R187 VGND.t26 VGND.n458 38.7147
R188 VGND.n305 VGND.n304 36.6123
R189 VGND.n69 VGND.t59 36.1063
R190 VGND.n167 VGND.n165 34.5845
R191 VGND.n615 VGND.n90 33.3525
R192 VGND.n496 VGND.t9 31.1079
R193 VGND.n317 VGND.n286 29.3925
R194 VGND.n316 VGND.n287 29.3925
R195 VGND.t83 VGND.n478 28.3754
R196 VGND.t101 VGND.n14 28.3754
R197 VGND.n56 VGND.t88 28.3754
R198 VGND.n479 VGND.t78 27.8464
R199 VGND.n15 VGND.t105 27.8464
R200 VGND.t92 VGND.n55 27.8464
R201 VGND.n320 VGND.n280 26.3125
R202 VGND.t4 VGND.t6 24.6159
R203 VGND.t49 VGND.t61 24.6159
R204 VGND.t57 VGND.t56 24.6159
R205 VGND.n374 VGND.n373 23.7809