* NGSPICE file created from tt_um_oscillating_bones.ext - technology: ihp-sg13g2

.subckt tt_um_oscillating_bones ena clk rst_n ui_in[0] ui_in[1] ui_in[2] ui_in[3]
+ ui_in[4] ui_in[5] ui_in[6] ui_in[7] uio_in[0] uio_in[1] uio_in[2] uio_in[3] uio_in[4]
+ uio_in[5] uio_in[6] uio_in[7] uo_out[0] uo_out[1] uo_out[2] uo_out[3] uo_out[4]
+ uo_out[5] uo_out[6] uo_out[7] uio_out[0] uio_out[1] uio_out[2] uio_out[3] uio_out[4]
+ uio_out[5] uio_out[6] uio_out[7] uio_oe[0] uio_oe[1] uio_oe[2] uio_oe[3] uio_oe[4]
+ uio_oe[5] uio_oe[6] uio_oe[7] VGND VDPWR
X0 uo_out[1].t0 a_22205_61585# VGND.t51 VGND.t50 sg13_lv_nmos ad=0.1406p pd=1.12u as=0.2516p ps=2.16u w=0.74u l=0.13u
X1 VDPWR.t88 a_16367_61578# freq_divider_0.sg13g2_dfrbp_2_0.D VDPWR.t0 sg13_lv_pmos ad=0.2014p pd=1.53u as=0.2128p ps=1.5u w=1.12u l=0.13u
X2 VGND.t43 a_17996_61559# a_17075_61640# VGND.t42 sg13_lv_nmos ad=0.1626p pd=1.415u as=0.2516p ps=2.16u w=0.74u l=0.13u
X3 VGND.t112 freq_divider_0.sg13g2_dfrbp_2_0.RESET_B a_21132_61704# VGND.t111 sg13_lv_nmos ad=0.1701p pd=1.65u as=38.85f ps=0.605u w=0.42u l=0.13u
X4 a_16707_61717# a_16367_61578# VDPWR.t88 VDPWR.t0 sg13_lv_pmos ad=79.8f pd=0.8u as=0.2014p ps=1.53u w=0.42u l=0.13u
X5 a_17910_61326# freq_divider_0.sg13g2_dfrbp_2_0.RESET_B VDPWR.t32 VDPWR.t0 sg13_lv_pmos ad=79.8f pd=0.8u as=0.36237p ps=2.605u w=0.42u l=0.13u
X6 a_20876_61559# freq_divider_0.sg13g2_dfrbp_2_0.RESET_B VDPWR.t14 VDPWR.t0 sg13_lv_pmos ad=0.147p pd=1.54u as=0.1563p ps=1.22u w=0.42u l=0.13u
X7 ring_0/inverter_ring_0/skullfet_inverter_19.A ring_0/inverter_ring_0/skullfet_inverter_0.Y VDPWR.t22 VDPWR.t21 sg13_lv_pmos ad=6.2694p pd=26.64u as=4.4307p ps=10.9u w=4.05u l=0.4u
X8 VGND.t67 a_22511_61578# a_22205_61585# VGND.t71 sg13_lv_nmos ad=0.1331p pd=1.12u as=0.2176p ps=1.96u w=0.64u l=0.13u
X9 VGND.t114 freq_divider_0.sg13g2_dfrbp_2_0.RESET_B a_18252_61704# VGND.t113 sg13_lv_nmos ad=0.1701p pd=1.65u as=38.85f ps=0.605u w=0.42u l=0.13u
X10 ring_0/inverter_ring_0/skullfet_inverter_6.A ring_0/inverter_ring_0/skullfet_inverter_7.A VDPWR.t4 VDPWR.t3 sg13_lv_pmos ad=6.2694p pd=26.64u as=4.4307p ps=10.9u w=4.05u l=0.4u
X11 VGND.t11 ring_0/inverter_ring_0/skullfet_inverter_13.A ring_0/inverter_ring_0/skullfet_inverter_12.A VGND.t10 sg13_lv_nmos ad=4.2687p pd=10.82u as=6.4314p ps=26.72u w=4.05u l=0.4u
X12 VDPWR.t45 a_20876_61559# a_19955_61640# VDPWR.t0 sg13_lv_pmos ad=0.36237p pd=2.605u as=0.34p ps=2.68u w=1u l=0.13u
X13 a_23109_61717# a_22851_61717# VGND.t36 VGND.t35 sg13_lv_nmos ad=0.1428p pd=1.52u as=79.8f ps=0.8u w=0.42u l=0.13u
X14 a_24054_61326# freq_divider_0.sg13g2_dfrbp_2_0.RESET_B VDPWR.t15 VDPWR.t0 sg13_lv_pmos ad=79.8f pd=0.8u as=0.36237p ps=2.605u w=0.42u l=0.13u
X15 VGND.t15 ring_0/inverter_ring_0/skullfet_inverter_17.A ring_0/inverter_ring_0/skullfet_inverter_16.A VGND.t14 sg13_lv_nmos ad=4.2687p pd=10.82u as=6.4314p ps=26.72u w=4.05u l=0.4u
X16 VGND.t47 freq_divider_0.sg13g2_dfrbp_2_0.RESET_B a_16801_61717# VGND.t46 sg13_lv_nmos ad=79.8f pd=0.8u as=37.8f ps=0.6u w=0.42u l=0.13u
X17 a_20876_61559# a_19947_61366# a_20747_61559# VGND.t102 sg13_lv_nmos ad=81f pd=0.81u as=0.2163p ps=1.87u w=0.42u l=0.13u
X18 ring_0/inverter_ring_0/skullfet_inverter_12.A ring_0/inverter_ring_0/skullfet_inverter_13.A VDPWR.t8 VDPWR.t7 sg13_lv_pmos ad=6.2694p pd=26.64u as=4.4307p ps=10.9u w=4.05u l=0.4u
X19 VDPWR.t48 a_22511_61578# freq_divider_0.sg13g2_dfrbp_2_2.D VDPWR.t0 sg13_lv_pmos ad=0.2014p pd=1.53u as=0.2128p ps=1.5u w=1.12u l=0.13u
X20 a_23211_61366# a_23350_61250# VDPWR.t28 VDPWR.t0 sg13_lv_pmos ad=0.3864p pd=2.93u as=1.55707p ps=9.54u w=1.12u l=0.13u
X21 a_23211_61366# a_23350_61250# VGND.t79 VGND.t78 sg13_lv_nmos ad=0.2516p pd=2.16u as=2.07232p ps=13.14u w=0.74u l=0.13u
X22 VGND.t116 ring_0/inverter_ring_0/skullfet_inverter_9.A ring_0/inverter_ring_0/skullfet_inverter_8.A VGND.t115 sg13_lv_nmos ad=4.2687p pd=10.82u as=6.4314p ps=26.72u w=4.05u l=0.4u
X23 ring_0/inverter_ring_0/skullfet_inverter_11.A ring_0/inverter_ring_0/skullfet_inverter_12.A VDPWR.t41 VDPWR.t40 sg13_lv_pmos ad=6.2694p pd=26.64u as=4.4307p ps=10.9u w=4.05u l=0.4u
X24 VDPWR.t27 freq_divider_0.sg13g2_dfrbp_2_2.D a_24054_61326# VDPWR.t0 sg13_lv_pmos ad=0.1428p pd=1.52u as=79.8f ps=0.8u w=0.42u l=0.13u
X25 a_22851_61717# a_22511_61578# VDPWR.t48 VDPWR.t0 sg13_lv_pmos ad=79.8f pd=0.8u as=0.2014p ps=1.53u w=0.42u l=0.13u
X26 a_23161_61402# a_22851_61717# VDPWR.t28 VDPWR.t0 sg13_lv_pmos ad=52.5f pd=0.67u as=1.55707p ps=9.54u w=0.42u l=0.13u
X27 VDPWR.t86 a_16367_61578# a_16061_61585# VDPWR.t0 sg13_lv_pmos ad=0.2083p pd=1.5u as=0.34p ps=2.68u w=1u l=0.13u
X28 a_17996_61559# a_17067_61366# a_17867_61559# VGND.t29 sg13_lv_nmos ad=81f pd=0.81u as=0.2163p ps=1.87u w=0.42u l=0.13u
X29 freq_divider_0.sg13g2_dfrbp_2_1.D a_19247_61578# VDPWR.t62 VDPWR.t0 sg13_lv_pmos ad=0.2128p pd=1.5u as=0.2083p ps=1.5u w=1.12u l=0.13u
X30 VDPWR.t28 a_21777_61520# freq_divider_0.sg13g2_dfrbp_2_0.RESET_B VDPWR.t0 sg13_lv_pmos ad=1.55707p pd=9.54u as=0.3927p ps=2.99u w=1.155u l=0.13u
X31 a_22945_61717# a_22511_61578# a_22851_61717# VGND.t70 sg13_lv_nmos ad=37.8f pd=0.6u as=0.1428p ps=1.52u w=0.42u l=0.13u
X32 VGND.t109 freq_divider_0.sg13g2_dfrbp_2_0.RESET_B a_24396_61704# VGND.t108 sg13_lv_nmos ad=0.1701p pd=1.65u as=38.85f ps=0.605u w=0.42u l=0.13u
X33 VDPWR.t46 a_22511_61578# a_22205_61585# VDPWR.t0 sg13_lv_pmos ad=0.2083p pd=1.5u as=0.34p ps=2.68u w=1u l=0.13u
X34 ring_0/inverter_ring_0/skullfet_inverter_3.A ring_0/inverter_ring_0/skullfet_inverter_4.A VDPWR.t57 VDPWR.t56 sg13_lv_pmos ad=6.2694p pd=26.64u as=4.4307p ps=10.9u w=4.05u l=0.4u
X35 a_24396_61704# a_23219_61640# a_24011_61559# VGND.t23 sg13_lv_nmos ad=38.85f pd=0.605u as=0.1596p ps=1.6u w=0.42u l=0.13u
X36 a_21856_61617# a_21980_61316# VDPWR.t28 VDPWR.t0 sg13_lv_pmos ad=0.2442p pd=2.06u as=1.55707p ps=9.54u w=0.66u l=0.13u
X37 uo_out[2].t0 a_18941_61585# VGND.t63 VGND.t62 sg13_lv_nmos ad=0.1406p pd=1.12u as=0.2516p ps=2.16u w=0.74u l=0.13u
X38 ring_0/inverter_ring_0/skullfet_inverter_17.A ring_0/inverter_ring_0/skullfet_inverter_18.A VDPWR.t6 VDPWR.t5 sg13_lv_pmos ad=6.2694p pd=26.64u as=4.4307p ps=10.9u w=4.05u l=0.4u
X39 VGND.t75 ring_0/inverter_ring_0/skullfet_inverter_14.A ring_0/inverter_ring_0/skullfet_inverter_13.A VGND.t74 sg13_lv_nmos ad=4.2687p pd=10.82u as=6.4314p ps=26.72u w=4.05u l=0.4u
X40 uo_out[2].t1 a_18941_61585# VDPWR.t44 VDPWR.t0 sg13_lv_pmos ad=0.2156p pd=1.505u as=0.3808p ps=2.92u w=1.12u l=0.13u
X41 VGND.t53 ring_0/inverter_ring_0/skullfet_inverter_2.A ring_0/inverter_ring_0/skullfet_inverter_1.A VGND.t52 sg13_lv_nmos ad=4.2687p pd=10.82u as=6.4314p ps=26.72u w=4.05u l=0.4u
X42 a_19247_61578# a_19947_61366# a_19897_61402# VDPWR.t0 sg13_lv_pmos ad=0.19115p pd=1.565u as=52.5f ps=0.67u w=0.42u l=0.13u
X43 ring_0/inverter_ring_0/skullfet_inverter_4.A ring_0/inverter_ring_0/skullfet_inverter_5.A VDPWR.t20 VDPWR.t19 sg13_lv_pmos ad=6.2694p pd=26.64u as=4.4307p ps=10.9u w=4.05u l=0.4u
X44 VGND.t83 ring_0/inverter_ring_0/skullfet_inverter_11.A ring_0/inverter_ring_0/skullfet_inverter_10.A VGND.t82 sg13_lv_nmos ad=4.2687p pd=10.82u as=6.4314p ps=26.72u w=4.05u l=0.4u
X45 VDPWR.t43 a_18941_61585# uo_out[2].t1 VDPWR.t0 sg13_lv_pmos ad=0.3808p pd=2.92u as=0.2156p ps=1.505u w=1.12u l=0.13u
X46 VGND.t45 ring_0/inverter_ring_0/skullfet_inverter_0.A ring_0/inverter_ring_0/skullfet_inverter_0.Y VGND.t44 sg13_lv_nmos ad=4.2687p pd=10.82u as=6.4314p ps=26.72u w=4.05u l=0.4u
X47 a_20876_61559# a_19947_61366# a_20790_61326# VDPWR.t0 sg13_lv_pmos ad=79.8f pd=0.8u as=0.1428p ps=1.52u w=0.42u l=0.13u
X48 a_18106_61326# a_17206_61250# a_17996_61559# VDPWR.t0 sg13_lv_pmos ad=54.6f pd=0.68u as=79.8f ps=0.8u w=0.42u l=0.13u
X49 VGND.t22 ring_0/inverter_ring_0/skullfet_inverter_3.A ring_0/inverter_ring_0/skullfet_inverter_2.A VGND.t21 sg13_lv_nmos ad=4.2687p pd=10.82u as=6.4314p ps=26.72u w=4.05u l=0.4u
X50 VGND.t17 ring_0/inverter_ring_0/skullfet_inverter_16.A uo_out[0].t0 VGND.t16 sg13_lv_nmos ad=4.2687p pd=10.82u as=6.4314p ps=26.72u w=4.05u l=0.4u
X51 ring_0/inverter_ring_0/skullfet_inverter_18.A ring_0/inverter_ring_0/skullfet_inverter_19.A VDPWR.t51 VDPWR.t50 sg13_lv_pmos ad=6.2694p pd=26.64u as=4.4307p ps=10.9u w=4.05u l=0.4u
X52 a_19947_61366# a_20086_61250# VDPWR.t28 VDPWR.t0 sg13_lv_pmos ad=0.3864p pd=2.93u as=1.55707p ps=9.54u w=1.12u l=0.13u
X53 ring_0/inverter_ring_0/skullfet_inverter_9.A ring_0/inverter_ring_0/skullfet_inverter_10.A VDPWR.t31 VDPWR.t30 sg13_lv_pmos ad=6.2694p pd=26.64u as=4.4307p ps=10.9u w=4.05u l=0.4u
X54 VGND.t69 a_22511_61578# freq_divider_0.sg13g2_dfrbp_2_2.D VGND.t68 sg13_lv_nmos ad=0.2516p pd=2.16u as=0.1406p ps=1.12u w=0.74u l=0.13u
X55 VGND.t96 uo_out[0].t2 ring_0/inverter_ring_0/skullfet_inverter_14.A VGND.t95 sg13_lv_nmos ad=4.2687p pd=10.82u as=6.4314p ps=26.72u w=4.05u l=0.4u
X56 VGND.t49 a_22205_61585# uo_out[1].t0 VGND.t48 sg13_lv_nmos ad=0.2516p pd=2.16u as=0.1406p ps=1.12u w=0.74u l=0.13u
X57 a_19681_61717# a_19247_61578# a_19587_61717# VGND.t93 sg13_lv_nmos ad=37.8f pd=0.6u as=0.1428p ps=1.52u w=0.42u l=0.13u
X58 a_17996_61559# a_17067_61366# a_17910_61326# VDPWR.t0 sg13_lv_pmos ad=79.8f pd=0.8u as=0.1428p ps=1.52u w=0.42u l=0.13u
X59 a_19955_61640# a_20086_61250# a_19247_61578# VDPWR.t0 sg13_lv_pmos ad=0.34p pd=2.68u as=0.19115p ps=1.565u w=1u l=0.13u
X60 a_20986_61326# a_20086_61250# a_20876_61559# VDPWR.t0 sg13_lv_pmos ad=54.6f pd=0.68u as=79.8f ps=0.8u w=0.42u l=0.13u
X61 VDPWR.t35 freq_divider_0.sg13g2_dfrbp_2_0.RESET_B a_16707_61717# VDPWR.t0 sg13_lv_pmos ad=1.4373p pd=8.805u as=79.8f ps=0.8u w=0.42u l=0.13u
X62 a_24140_61559# a_23211_61366# a_24054_61326# VDPWR.t0 sg13_lv_pmos ad=79.8f pd=0.8u as=0.1428p ps=1.52u w=0.42u l=0.13u
X63 a_17067_61366# a_17206_61250# VDPWR.t35 VDPWR.t0 sg13_lv_pmos ad=0.3864p pd=2.93u as=1.55707p ps=9.54u w=1.12u l=0.13u
X64 VDPWR.t28 freq_divider_0.sg13g2_dfrbp_2_0.RESET_B a_22851_61717# VDPWR.t0 sg13_lv_pmos ad=1.4373p pd=8.805u as=79.8f ps=0.8u w=0.42u l=0.13u
X65 a_17067_61366# a_17206_61250# VGND.t59 VGND.t58 sg13_lv_nmos ad=0.2516p pd=2.16u as=2.07232p ps=13.14u w=0.74u l=0.13u
X66 VDPWR.t71 freq_divider_0.sg13g2_dfrbp_2_0.D a_17910_61326# VDPWR.t0 sg13_lv_pmos ad=0.1428p pd=1.52u as=79.8f ps=0.8u w=0.42u l=0.13u
X67 freq_divider_0.sg13g2_dfrbp_2_1.D a_19247_61578# VGND.t89 VGND.t92 sg13_lv_nmos ad=0.1406p pd=1.12u as=0.1331p ps=1.12u w=0.74u l=0.13u
X68 a_21132_61704# a_19955_61640# a_20747_61559# VGND.t18 sg13_lv_nmos ad=38.85f pd=0.605u as=0.1596p ps=1.6u w=0.42u l=0.13u
X69 a_17910_61326# a_17206_61250# a_17996_61559# VGND.t57 sg13_lv_nmos ad=0.1296p pd=1.52u as=81f ps=0.81u w=0.42u l=0.13u
X70 a_19845_61717# a_20086_61250# a_19247_61578# VGND.t39 sg13_lv_nmos ad=0.1428p pd=1.52u as=0.12665p ps=1.145u w=0.42u l=0.13u
X71 a_16965_61717# a_16707_61717# VGND.t47 VGND.t46 sg13_lv_nmos ad=0.1428p pd=1.52u as=79.8f ps=0.8u w=0.42u l=0.13u
X72 a_19897_61402# a_19587_61717# VDPWR.t35 VDPWR.t0 sg13_lv_pmos ad=52.5f pd=0.67u as=1.55707p ps=9.54u w=0.42u l=0.13u
X73 a_20790_61326# a_20086_61250# a_20876_61559# VGND.t38 sg13_lv_nmos ad=0.1296p pd=1.52u as=81f ps=0.81u w=0.42u l=0.13u
X74 a_18252_61704# a_17075_61640# a_17867_61559# VGND.t12 sg13_lv_nmos ad=38.85f pd=0.605u as=0.1596p ps=1.6u w=0.42u l=0.13u
X75 VGND.t91 a_19247_61578# freq_divider_0.sg13g2_dfrbp_2_1.D VGND.t90 sg13_lv_nmos ad=0.2516p pd=2.16u as=0.1406p ps=1.12u w=0.74u l=0.13u
X76 VGND.t61 a_18941_61585# uo_out[2].t0 VGND.t60 sg13_lv_nmos ad=0.2516p pd=2.16u as=0.1406p ps=1.12u w=0.74u l=0.13u
X77 a_24140_61559# a_23211_61366# a_24011_61559# VGND.t1 sg13_lv_nmos ad=81f pd=0.81u as=0.2163p ps=1.87u w=0.42u l=0.13u
X78 a_16965_61717# a_17206_61250# a_16367_61578# VGND.t56 sg13_lv_nmos ad=0.1428p pd=1.52u as=0.12665p ps=1.145u w=0.42u l=0.13u
X79 VGND.t89 a_19247_61578# a_18941_61585# VGND.t88 sg13_lv_nmos ad=0.1331p pd=1.12u as=0.2176p ps=1.96u w=0.64u l=0.13u
X80 a_17996_61559# freq_divider_0.sg13g2_dfrbp_2_0.RESET_B VDPWR.t9 VDPWR.t0 sg13_lv_pmos ad=0.147p pd=1.54u as=0.1563p ps=1.22u w=0.42u l=0.13u
X81 VDPWR.t14 a_19955_61640# a_20986_61326# VDPWR.t0 sg13_lv_pmos ad=0.1563p pd=1.22u as=54.6f ps=0.68u w=0.42u l=0.13u
X82 a_20790_61326# freq_divider_0.sg13g2_dfrbp_2_1.D a_21529_61717# VGND.t117 sg13_lv_nmos ad=0.1428p pd=1.52u as=60.89999f ps=0.71u w=0.42u l=0.13u
X83 VDPWR.t32 a_17996_61559# a_17075_61640# VDPWR.t0 sg13_lv_pmos ad=0.36237p pd=2.605u as=0.34p ps=2.68u w=1u l=0.13u
X84 VGND.t27 ring_0/inverter_ring_0/skullfet_inverter_0.Y ring_0/inverter_ring_0/skullfet_inverter_19.A VGND.t26 sg13_lv_nmos ad=4.2687p pd=10.82u as=6.4314p ps=26.72u w=4.05u l=0.4u
X85 a_24140_61559# freq_divider_0.sg13g2_dfrbp_2_0.RESET_B VDPWR.t18 VDPWR.t0 sg13_lv_pmos ad=0.147p pd=1.54u as=0.1563p ps=1.22u w=0.42u l=0.13u
X86 ring_0/inverter_ring_0/skullfet_inverter_5.A ring_0/inverter_ring_0/skullfet_inverter_6.A VDPWR.t2 VDPWR.t1 sg13_lv_pmos ad=6.2694p pd=26.64u as=4.4307p ps=10.9u w=4.05u l=0.4u
X87 VDPWR.t63 a_19247_61578# freq_divider_0.sg13g2_dfrbp_2_1.D VDPWR.t0 sg13_lv_pmos ad=0.2014p pd=1.53u as=0.2128p ps=1.5u w=1.12u l=0.13u
X88 VGND.t31 ring_0/inverter_ring_0/skullfet_inverter_8.A ring_0/inverter_ring_0/skullfet_inverter_7.A VGND.t30 sg13_lv_nmos ad=4.2687p pd=10.82u as=6.4314p ps=26.72u w=4.05u l=0.4u
X89 VDPWR.t28 uo_out[1].t2 a_20086_61250# VDPWR.t0 sg13_lv_pmos ad=1.55707p pd=9.54u as=0.3808p ps=2.92u w=1.12u l=0.13u
X90 VDPWR.t15 a_24140_61559# a_23219_61640# VDPWR.t0 sg13_lv_pmos ad=0.36237p pd=2.605u as=0.34p ps=2.68u w=1u l=0.13u
X91 a_23219_61640# a_23350_61250# a_22511_61578# VDPWR.t0 sg13_lv_pmos ad=0.34p pd=2.68u as=0.19115p ps=1.565u w=1u l=0.13u
X92 VDPWR.t9 a_17075_61640# a_18106_61326# VDPWR.t0 sg13_lv_pmos ad=0.1563p pd=1.22u as=54.6f ps=0.68u w=0.42u l=0.13u
X93 a_19587_61717# a_19247_61578# VDPWR.t63 VDPWR.t0 sg13_lv_pmos ad=79.8f pd=0.8u as=0.2014p ps=1.53u w=0.42u l=0.13u
X94 VGND.t33 ring_0/inverter_ring_0/skullfet_inverter_1.A ring_0/inverter_ring_0/skullfet_inverter_0.A VGND.t32 sg13_lv_nmos ad=4.2687p pd=10.82u as=6.4314p ps=26.72u w=4.05u l=0.4u
X95 ring_0/inverter_ring_0/skullfet_inverter_10.A ring_0/inverter_ring_0/skullfet_inverter_11.A VDPWR.t59 VDPWR.t58 sg13_lv_pmos ad=6.2694p pd=26.64u as=4.4307p ps=10.9u w=4.05u l=0.4u
X96 VDPWR.t37 a_22205_61585# uo_out[1].t1 VDPWR.t0 sg13_lv_pmos ad=0.3808p pd=2.92u as=0.2156p ps=1.505u w=1.12u l=0.13u
X97 VDPWR.t35 uo_out[2].t2 a_17206_61250# VDPWR.t0 sg13_lv_pmos ad=1.55707p pd=9.54u as=0.3808p ps=2.92u w=1.12u l=0.13u
X98 VGND.t55 ring_0/inverter_ring_0/skullfet_inverter_12.A ring_0/inverter_ring_0/skullfet_inverter_11.A VGND.t54 sg13_lv_nmos ad=4.2687p pd=10.82u as=6.4314p ps=26.72u w=4.05u l=0.4u
X99 a_23109_61717# a_23350_61250# a_22511_61578# VGND.t77 sg13_lv_nmos ad=0.1428p pd=1.52u as=0.12665p ps=1.145u w=0.42u l=0.13u
X100 ring_0/inverter_ring_0/skullfet_inverter_0.A ring_0/inverter_ring_0/skullfet_inverter_1.A VDPWR.t26 VDPWR.t25 sg13_lv_pmos ad=6.2694p pd=26.64u as=4.4307p ps=10.9u w=4.05u l=0.4u
X101 ring_0/inverter_ring_0/skullfet_inverter_16.A ring_0/inverter_ring_0/skullfet_inverter_17.A VDPWR.t11 VDPWR.t10 sg13_lv_pmos ad=6.2694p pd=26.64u as=4.4307p ps=10.9u w=4.05u l=0.4u
X102 a_21980_61316# a_21980_61316# VGND.t3 VGND.t118 sg13_lv_nmos ad=0.111p pd=1.34u as=2.07232p ps=13.14u w=0.3u l=0.13u
X103 VGND.t99 freq_divider_0.sg13g2_dfrbp_2_0.RESET_B a_19681_61717# VGND.t98 sg13_lv_nmos ad=79.8f pd=0.8u as=37.8f ps=0.6u w=0.42u l=0.13u
X104 ring_0/inverter_ring_0/skullfet_inverter_2.A ring_0/inverter_ring_0/skullfet_inverter_3.A VDPWR.t17 VDPWR.t16 sg13_lv_pmos ad=6.2694p pd=26.64u as=4.4307p ps=10.9u w=4.05u l=0.4u
X105 uo_out[0].t1 ring_0/inverter_ring_0/skullfet_inverter_16.A VDPWR.t13 VDPWR.t12 sg13_lv_pmos ad=6.2694p pd=26.64u as=4.4307p ps=10.9u w=4.05u l=0.4u
X106 a_21529_61717# freq_divider_0.sg13g2_dfrbp_2_0.RESET_B VGND.t65 VGND.t106 sg13_lv_nmos ad=60.89999f pd=0.71u as=0.1626p ps=1.415u w=0.42u l=0.13u
X107 VGND.t65 a_20876_61559# a_19955_61640# VGND.t64 sg13_lv_nmos ad=0.1626p pd=1.415u as=0.2516p ps=2.16u w=0.74u l=0.13u
X108 uo_out[3].t0 a_16061_61585# VGND.t87 VGND.t86 sg13_lv_nmos ad=0.1406p pd=1.12u as=0.2516p ps=2.16u w=0.74u l=0.13u
X109 VGND.t3 uo_out[1].t2 a_20086_61250# VGND.t13 sg13_lv_nmos ad=2.07232p pd=13.14u as=0.2516p ps=2.16u w=0.74u l=0.13u
X110 VGND.t3 a_21856_61617# a_21777_61520# VGND.t2 sg13_lv_nmos ad=2.07232p pd=13.14u as=0.27427p ps=2.28u w=0.795u l=0.13u
X111 a_16367_61578# a_17067_61366# a_17017_61402# VDPWR.t0 sg13_lv_pmos ad=0.19115p pd=1.565u as=52.5f ps=0.67u w=0.42u l=0.13u
X112 ring_0/inverter_ring_0/skullfet_inverter_14.A uo_out[0].t2 VDPWR.t68 VDPWR.t67 sg13_lv_pmos ad=6.2694p pd=26.64u as=4.4307p ps=10.9u w=4.05u l=0.4u
X113 VGND.t81 ring_0/inverter_ring_0/skullfet_inverter_4.A ring_0/inverter_ring_0/skullfet_inverter_3.A VGND.t80 sg13_lv_nmos ad=4.2687p pd=10.82u as=6.4314p ps=26.72u w=4.05u l=0.4u
X114 VDPWR.t18 a_23219_61640# a_24250_61326# VDPWR.t0 sg13_lv_pmos ad=0.1563p pd=1.22u as=54.6f ps=0.68u w=0.42u l=0.13u
X115 a_24250_61326# a_23350_61250# a_24140_61559# VDPWR.t0 sg13_lv_pmos ad=54.6f pd=0.68u as=79.8f ps=0.8u w=0.42u l=0.13u
X116 a_20790_61326# freq_divider_0.sg13g2_dfrbp_2_0.RESET_B VDPWR.t45 VDPWR.t0 sg13_lv_pmos ad=79.8f pd=0.8u as=0.36237p ps=2.605u w=0.42u l=0.13u
X117 a_24054_61326# freq_divider_0.sg13g2_dfrbp_2_2.D a_24793_61717# VGND.t34 sg13_lv_nmos ad=0.1428p pd=1.52u as=60.89999f ps=0.71u w=0.42u l=0.13u
X118 a_22511_61578# a_23211_61366# a_23219_61640# VGND.t0 sg13_lv_nmos ad=0.12665p pd=1.145u as=0.3473p ps=2.71u w=0.74u l=0.13u
X119 a_18649_61717# freq_divider_0.sg13g2_dfrbp_2_0.RESET_B VGND.t43 VGND.t105 sg13_lv_nmos ad=60.89999f pd=0.71u as=0.1626p ps=1.415u w=0.42u l=0.13u
X120 freq_divider_0.sg13g2_dfrbp_2_0.D a_16367_61578# VDPWR.t86 VDPWR.t0 sg13_lv_pmos ad=0.2128p pd=1.5u as=0.2083p ps=1.5u w=1.12u l=0.13u
X121 VGND.t59 uo_out[2].t2 a_17206_61250# VGND.t58 sg13_lv_nmos ad=2.07232p pd=13.14u as=0.2516p ps=2.16u w=0.74u l=0.13u
X122 VDPWR.t62 a_19247_61578# a_18941_61585# VDPWR.t0 sg13_lv_pmos ad=0.2083p pd=1.5u as=0.34p ps=2.68u w=1u l=0.13u
X123 VGND.t7 ring_0/inverter_ring_0/skullfet_inverter_7.A ring_0/inverter_ring_0/skullfet_inverter_6.A VGND.t6 sg13_lv_nmos ad=4.2687p pd=10.82u as=6.4314p ps=26.72u w=4.05u l=0.4u
X124 a_24793_61717# freq_divider_0.sg13g2_dfrbp_2_0.RESET_B VGND.t20 VGND.t104 sg13_lv_nmos ad=60.89999f pd=0.71u as=0.1626p ps=1.415u w=0.42u l=0.13u
X125 a_17075_61640# a_17206_61250# a_16367_61578# VDPWR.t0 sg13_lv_pmos ad=0.34p pd=2.68u as=0.19115p ps=1.565u w=1u l=0.13u
X126 uo_out[3].t1 a_16061_61585# VDPWR.t61 VDPWR.t0 sg13_lv_pmos ad=0.2156p pd=1.505u as=0.3808p ps=2.92u w=1.12u l=0.13u
X127 a_24054_61326# a_23350_61250# a_24140_61559# VGND.t76 sg13_lv_nmos ad=0.1296p pd=1.52u as=81f ps=0.81u w=0.42u l=0.13u
X128 VDPWR.t60 a_16061_61585# uo_out[3].t1 VDPWR.t0 sg13_lv_pmos ad=0.3808p pd=2.92u as=0.2156p ps=1.505u w=1.12u l=0.13u
X129 a_22511_61578# a_23211_61366# a_23161_61402# VDPWR.t0 sg13_lv_pmos ad=0.19115p pd=1.565u as=52.5f ps=0.67u w=0.42u l=0.13u
X130 ring_0/inverter_ring_0/skullfet_inverter_8.A ring_0/inverter_ring_0/skullfet_inverter_9.A VDPWR.t83 VDPWR.t82 sg13_lv_pmos ad=6.2694p pd=26.64u as=4.4307p ps=10.9u w=4.05u l=0.4u
X131 uo_out[1].t1 a_22205_61585# VDPWR.t36 VDPWR.t0 sg13_lv_pmos ad=0.2156p pd=1.505u as=0.3808p ps=2.92u w=1.12u l=0.13u
X132 ring_0/inverter_ring_0/skullfet_inverter_7.A ring_0/inverter_ring_0/skullfet_inverter_8.A VDPWR.t24 VDPWR.t23 sg13_lv_pmos ad=6.2694p pd=26.64u as=4.4307p ps=10.9u w=4.05u l=0.4u
X133 VGND.t41 ring_0/inverter_ring_0/skullfet_inverter_10.A ring_0/inverter_ring_0/skullfet_inverter_9.A VGND.t40 sg13_lv_nmos ad=4.2687p pd=10.82u as=6.4314p ps=26.72u w=4.05u l=0.4u
X134 VGND.t20 a_24140_61559# a_23219_61640# VGND.t19 sg13_lv_nmos ad=0.1626p pd=1.415u as=0.2516p ps=2.16u w=0.74u l=0.13u
X135 VGND.t79 uo_out[0].t3 a_23350_61250# VGND.t78 sg13_lv_nmos ad=2.07232p pd=13.14u as=0.2516p ps=2.16u w=0.74u l=0.13u
X136 freq_divider_0.sg13g2_dfrbp_2_2.D a_22511_61578# VDPWR.t46 VDPWR.t0 sg13_lv_pmos ad=0.2128p pd=1.5u as=0.2083p ps=1.5u w=1.12u l=0.13u
X137 a_16801_61717# a_16367_61578# a_16707_61717# VGND.t124 sg13_lv_nmos ad=37.8f pd=0.6u as=0.1428p ps=1.52u w=0.42u l=0.13u
X138 a_19247_61578# a_19947_61366# a_19955_61640# VGND.t101 sg13_lv_nmos ad=0.12665p pd=1.145u as=0.3473p ps=2.71u w=0.74u l=0.13u
X139 ring_0/inverter_ring_0/skullfet_inverter_1.A ring_0/inverter_ring_0/skullfet_inverter_2.A VDPWR.t39 VDPWR.t38 sg13_lv_pmos ad=6.2694p pd=26.64u as=4.4307p ps=10.9u w=4.05u l=0.4u
X140 ring_0/inverter_ring_0/skullfet_inverter_13.A ring_0/inverter_ring_0/skullfet_inverter_14.A VDPWR.t53 VDPWR.t52 sg13_lv_pmos ad=6.2694p pd=26.64u as=4.4307p ps=10.9u w=4.05u l=0.4u
X141 VDPWR.t35 freq_divider_0.sg13g2_dfrbp_2_0.RESET_B a_19587_61717# VDPWR.t0 sg13_lv_pmos ad=1.4373p pd=8.805u as=79.8f ps=0.8u w=0.42u l=0.13u
X142 ring_0/inverter_ring_0/skullfet_inverter_0.Y ring_0/inverter_ring_0/skullfet_inverter_0.A VDPWR.t34 VDPWR.t33 sg13_lv_pmos ad=6.2694p pd=26.64u as=4.4307p ps=10.9u w=4.05u l=0.4u
X143 freq_divider_0.sg13g2_dfrbp_2_0.D a_16367_61578# VGND.t120 VGND.t123 sg13_lv_nmos ad=0.1406p pd=1.12u as=0.1331p ps=1.12u w=0.74u l=0.13u
X144 a_17910_61326# freq_divider_0.sg13g2_dfrbp_2_0.D a_18649_61717# VGND.t100 sg13_lv_nmos ad=0.1428p pd=1.52u as=60.89999f ps=0.71u w=0.42u l=0.13u
X145 a_16367_61578# a_17067_61366# a_17075_61640# VGND.t28 sg13_lv_nmos ad=0.12665p pd=1.145u as=0.3473p ps=2.71u w=0.74u l=0.13u
X146 VGND.t36 freq_divider_0.sg13g2_dfrbp_2_0.RESET_B a_22945_61717# VGND.t35 sg13_lv_nmos ad=79.8f pd=0.8u as=37.8f ps=0.6u w=0.42u l=0.13u
X147 a_17017_61402# a_16707_61717# VDPWR.t35 VDPWR.t0 sg13_lv_pmos ad=52.5f pd=0.67u as=1.55707p ps=9.54u w=0.42u l=0.13u
X148 VGND.t9 ring_0/inverter_ring_0/skullfet_inverter_18.A ring_0/inverter_ring_0/skullfet_inverter_17.A VGND.t8 sg13_lv_nmos ad=4.2687p pd=10.82u as=6.4314p ps=26.72u w=4.05u l=0.4u
X149 VGND.t122 a_16367_61578# freq_divider_0.sg13g2_dfrbp_2_0.D VGND.t121 sg13_lv_nmos ad=0.2516p pd=2.16u as=0.1406p ps=1.12u w=0.74u l=0.13u
X150 VGND.t5 ring_0/inverter_ring_0/skullfet_inverter_6.A ring_0/inverter_ring_0/skullfet_inverter_5.A VGND.t4 sg13_lv_nmos ad=4.2687p pd=10.82u as=6.4314p ps=26.72u w=4.05u l=0.4u
X151 VGND.t85 a_16061_61585# uo_out[3].t0 VGND.t84 sg13_lv_nmos ad=0.2516p pd=2.16u as=0.1406p ps=1.12u w=0.74u l=0.13u
X152 a_19845_61717# a_19587_61717# VGND.t99 VGND.t98 sg13_lv_nmos ad=0.1428p pd=1.52u as=79.8f ps=0.8u w=0.42u l=0.13u
X153 VGND.t25 ring_0/inverter_ring_0/skullfet_inverter_5.A ring_0/inverter_ring_0/skullfet_inverter_4.A VGND.t24 sg13_lv_nmos ad=4.2687p pd=10.82u as=6.4314p ps=26.72u w=4.05u l=0.4u
X154 VGND.t120 a_16367_61578# a_16061_61585# VGND.t119 sg13_lv_nmos ad=0.1331p pd=1.12u as=0.2176p ps=1.96u w=0.64u l=0.13u
X155 VDPWR.t28 uo_out[0].t3 a_23350_61250# VDPWR.t0 sg13_lv_pmos ad=1.55707p pd=9.54u as=0.3808p ps=2.92u w=1.12u l=0.13u
X156 a_19947_61366# a_20086_61250# VGND.t3 VGND.t13 sg13_lv_nmos ad=0.2516p pd=2.16u as=2.07232p ps=13.14u w=0.74u l=0.13u
X157 VGND.t73 ring_0/inverter_ring_0/skullfet_inverter_19.A ring_0/inverter_ring_0/skullfet_inverter_18.A VGND.t72 sg13_lv_nmos ad=4.2687p pd=10.82u as=6.4314p ps=26.72u w=4.05u l=0.4u
X158 VDPWR.t84 freq_divider_0.sg13g2_dfrbp_2_1.D a_20790_61326# VDPWR.t0 sg13_lv_pmos ad=0.1428p pd=1.52u as=79.8f ps=0.8u w=0.42u l=0.13u
X159 freq_divider_0.sg13g2_dfrbp_2_2.D a_22511_61578# VGND.t67 VGND.t66 sg13_lv_nmos ad=0.1406p pd=1.12u as=0.1331p ps=1.12u w=0.74u l=0.13u
R0 VGND.n199 VGND.n59 36337.9
R1 VGND.n207 VGND.n111 26006.8
R2 VGND.n343 VGND.n111 20289.4
R3 VGND.t80 VGND.n157 19416.2
R4 VGND.n466 VGND.n465 17662.9
R5 VGND.n191 VGND.n70 15262.5
R6 VGND.n199 VGND.n111 12285.4
R7 VGND.n61 VGND.n59 12285.4
R8 VGND.n465 VGND.n464 12279.6
R9 VGND.n197 VGND.t4 12039.2
R10 VGND.t6 VGND.n63 10402.1
R11 VGND.n278 VGND.n271 10052.7
R12 VGND.n467 VGND.n466 9967.62
R13 VGND.n156 VGND.n155 9840.79
R14 VGND.n198 VGND.n61 9066.9
R15 VGND.n262 VGND.n197 7844.55
R16 VGND.n207 VGND.n201 7498.6
R17 VGND.n196 VGND.n195 7474.99
R18 VGND.n155 VGND.n152 7291.79
R19 VGND.n191 VGND.t24 7169.54
R20 VGND.n470 VGND.n65 6899.39
R21 VGND.n474 VGND.n60 6851.13
R22 VGND.n69 VGND.n65 6429.23
R23 VGND.n262 VGND.t21 6051.63
R24 VGND.n200 VGND.n199 6014.02
R25 VGND.n464 VGND.n463 5872.62
R26 VGND.n201 VGND.n200 5699.78
R27 VGND.n464 VGND.n69 5321.16
R28 VGND.n192 VGND.n191 5298.87
R29 VGND.n476 VGND.n475 4953.11
R30 VGND.n466 VGND.n69 4950.06
R31 VGND.n261 VGND.n260 4945.91
R32 VGND.n288 VGND.n152 3511.45
R33 VGND.n155 VGND.n154 3475.34
R34 VGND.n273 VGND.n268 3284.18
R35 VGND.n464 VGND.n71 3154.9
R36 VGND.n197 VGND.n196 3153.12
R37 VGND.n279 VGND.n278 2376.2
R38 VGND.n262 VGND.n154 2220.92
R39 VGND.n468 VGND.n467 2084.31
R40 VGND.n472 VGND.n63 1946.24
R41 VGND.n200 VGND.n198 1880.71
R42 VGND.n157 VGND.n70 1835.32
R43 VGND.n74 VGND.n71 1763.01
R44 VGND.n262 VGND.n198 1734.38
R45 VGND.n197 VGND.n63 1470.05
R46 VGND.n280 VGND.t44 1368.89
R47 VGND.t72 VGND.n273 1347.06
R48 VGND.n273 VGND.t26 1194.61
R49 VGND.t24 VGND.n190 1123.79
R50 VGND.n465 VGND.n70 1061.65
R51 VGND.n280 VGND.n268 977.779
R52 VGND.n60 VGND.t10 964.287
R53 VGND.n262 VGND.n156 905.553
R54 VGND.t10 VGND.n59 876.317
R55 VGND.n474 VGND.n61 837.723
R56 VGND.n272 VGND.n152 814.62
R57 VGND.n234 VGND.n231 744.615
R58 VGND.n484 VGND.n5 744.615
R59 VGND.n53 VGND.n52 744.615
R60 VGND.n206 VGND.t95 675.663
R61 VGND.n195 VGND.t21 656.004
R62 VGND.n463 VGND.t4 656.004
R63 VGND.n196 VGND.t80 615.229
R64 VGND.n156 VGND.n151 608.424
R65 VGND.n344 VGND.n59 575.212
R66 VGND.n196 VGND.n192 498.868
R67 VGND.n234 VGND.t35 480
R68 VGND.n484 VGND.t98 480
R69 VGND.n52 VGND.t46 480
R70 VGND.n469 VGND.t115 455.887
R71 VGND.n74 VGND.t6 427.755
R72 VGND.n262 VGND.n261 402.269
R73 VGND.n475 VGND.n474 395.865
R74 VGND.n262 VGND.n201 392.892
R75 VGND.t74 VGND.n343 372.399
R76 VGND.n279 VGND.n268 344.149
R77 VGND.t26 VGND.n271 335.173
R78 VGND.n68 VGND.t115 330.428
R79 VGND.n288 VGND.t14 318.406
R80 VGND.n343 VGND.n342 307.757
R81 VGND.n157 VGND.n154 278.079
R82 VGND.n230 VGND.t68 260.005
R83 VGND.n16 VGND.t90 260.005
R84 VGND.t121 VGND.n54 260.005
R85 VGND.t66 VGND.n228 234.738
R86 VGND.t92 VGND.n14 234.738
R87 VGND.n56 VGND.t123 234.738
R88 VGND.n241 VGND.t71 232.869
R89 VGND.n25 VGND.t88 232.869
R90 VGND.t119 VGND.n43 232.869
R91 VGND.t52 VGND.n151 231.615
R92 VGND.t2 VGND.n225 228.233
R93 VGND.n272 VGND.t32 227.947
R94 VGND.n198 VGND.n63 226.054
R95 VGND.n248 VGND.t64 200.339
R96 VGND.n31 VGND.t42 200.339
R97 VGND.n212 VGND.t19 200.339
R98 VGND.n246 VGND.t117 195.942
R99 VGND.n12 VGND.t100 194.969
R100 VGND.n473 VGND.n472 194.851
R101 VGND.n245 VGND.t48 185.124
R102 VGND.n29 VGND.t60 185.124
R103 VGND.t84 VGND.n41 185.124
R104 VGND.t50 VGND.n226 184.825
R105 VGND.t62 VGND.n12 184.825
R106 VGND.n260 VGND.t34 180.052
R107 VGND.n226 VGND.t118 172.145
R108 VGND.n476 VGND.t86 169.907
R109 VGND.n278 VGND.t8 164.255
R110 VGND.t18 VGND.t111 159.763
R111 VGND.t12 VGND.t113 159.763
R112 VGND.t23 VGND.t108 159.763
R113 VGND.t102 VGND.n221 156.929
R114 VGND.t29 VGND.n9 156.929
R115 VGND.t1 VGND.n209 156.929
R116 VGND.n252 VGND.t38 154.614
R117 VGND.n35 VGND.t57 154.614
R118 VGND.n215 VGND.t76 154.614
R119 VGND.n71 VGND.n65 151.276
R120 VGND.t106 VGND.n223 149.62
R121 VGND.t105 VGND.n11 149.62
R122 VGND.t104 VGND.n211 149.62
R123 VGND.t35 VGND.t0 138.463
R124 VGND.t98 VGND.t101 138.463
R125 VGND.t46 VGND.t28 138.463
R126 VGND.n261 VGND.t16 132.323
R127 VGND.n472 VGND.t30 128.216
R128 VGND.n475 VGND.n59 122.921
R129 VGND.t44 VGND.n279 113.026
R130 VGND.n231 VGND.t70 110.237
R131 VGND.t93 VGND.n5 110.237
R132 VGND.t124 VGND.n53 110.237
R133 VGND.n221 VGND.n5 106.212
R134 VGND.n53 VGND.n9 106.212
R135 VGND.n231 VGND.n209 106.212
R136 VGND.t38 VGND.n251 100.478
R137 VGND.t57 VGND.n34 100.478
R138 VGND.t76 VGND.n214 100.478
R139 VGND.n252 VGND.t102 99.7516
R140 VGND.n35 VGND.t29 99.7516
R141 VGND.n215 VGND.t1 99.7516
R142 VGND.n467 VGND.n68 95.8456
R143 VGND.t30 VGND.n471 95.5275
R144 VGND.n248 VGND.t106 93.8297
R145 VGND.n31 VGND.t105 93.8297
R146 VGND.n212 VGND.t104 93.8297
R147 VGND.t118 VGND.n225 86.222
R148 VGND.n288 VGND.n151 84.6642
R149 VGND.n471 VGND.n470 83.8532
R150 VGND.n251 VGND.t18 75.5501
R151 VGND.n34 VGND.t12 75.5501
R152 VGND.n214 VGND.t23 75.5501
R153 VGND.t78 VGND.t77 73.8467
R154 VGND.t13 VGND.t39 73.8467
R155 VGND.t58 VGND.t56 73.8467
R156 VGND.n245 VGND.t50 73.5423
R157 VGND.n29 VGND.t62 73.5423
R158 VGND.t86 VGND.n41 73.5423
R159 VGND.t48 VGND.n241 73.244
R160 VGND.t60 VGND.n25 73.244
R161 VGND.n43 VGND.t84 73.244
R162 VGND.n287 VGND.t32 72.396
R163 VGND.n342 VGND.t95 65.0575
R164 VGND.n344 VGND.t74 63.8663
R165 VGND.n474 VGND.t54 63.5677
R166 VGND.t117 VGND.n223 63.3986
R167 VGND.t100 VGND.n11 63.3986
R168 VGND.n211 VGND.t34 63.3986
R169 VGND.t19 VGND.n210 59.0031
R170 VGND.t64 VGND.n222 59.0031
R171 VGND.t42 VGND.n10 59.0031
R172 VGND.n472 VGND.t82 55.0827
R173 VGND.n263 VGND.t52 51.425
R174 VGND.n203 VGND.t14 51.1311
R175 VGND.t70 VGND.n230 48.4827
R176 VGND.n16 VGND.t93 48.4827
R177 VGND.n54 VGND.t124 48.4827
R178 VGND.t54 VGND.n473 47.9255
R179 VGND.n469 VGND.t40 47.7166
R180 VGND.n469 VGND.n66 44.7738
R181 VGND.n289 VGND.t8 44.7032
R182 VGND.t16 VGND.n207 42.4247
R183 VGND.n66 VGND.t82 41.6077
R184 VGND.n277 VGND.t72 38.7252
R185 VGND.t111 VGND.n222 38.7147
R186 VGND.t113 VGND.n10 38.7147
R187 VGND.t108 VGND.n210 38.7147
R188 VGND.n278 VGND.n272 36.6123
R189 VGND.t40 VGND.n468 36.1063
R190 VGND.n246 VGND.t2 31.1079
R191 VGND.t71 VGND.n228 28.3754
R192 VGND.t88 VGND.n14 28.3754
R193 VGND.n56 VGND.t119 28.3754
R194 VGND.n229 VGND.t66 27.8464
R195 VGND.n15 VGND.t92 27.8464
R196 VGND.t123 VGND.n55 27.8464
R197 VGND.t0 VGND.t78 24.6159
R198 VGND.t101 VGND.t13 24.6159
R199 VGND.t28 VGND.t58 24.6159
R200 VGND.n288 VGND.n287 22.6588
R201 VGND.n207 VGND.n206 22.6333
R202 VGND.n470 VGND.n469 18.8055
R203 VGND.n286 VGND.n285 18.1658
R204 VGND.n265 VGND.n264 18.1658
R205 VGND.n391 VGND.n390 18.1658
R206 VGND.n77 VGND.n64 18.1658
R207 VGND.n76 VGND.n75 18.1658
R208 VGND.n462 VGND.n461 18.1658
R209 VGND.n190 VGND.n189 18.1658
R210 VGND.n159 VGND.n158 18.1658