* NGSPICE file created from tt_um_oscillating_bones.ext - technology: sky130A

.subckt tt_um_oscillating_bones clk ena rst_n ui_in[0] ui_in[1] ui_in[2] ui_in[3]
+ ui_in[4] ui_in[5] ui_in[6] ui_in[7] uio_in[0] uio_in[1] uio_in[2] uio_in[3] uio_in[4]
+ uio_in[5] uio_in[6] uio_in[7] uio_oe[0] uio_oe[1] uio_oe[2] uio_oe[3] uio_oe[4]
+ uio_oe[5] uio_oe[6] uio_oe[7] uio_out[0] uio_out[1] uio_out[2] uio_out[3] uio_out[4]
+ uio_out[5] uio_out[6] uio_out[7] uo_out[2] uo_out[4] uo_out[5] uo_out[6] uo_out[7]
+ VGND uo_out[0] uo_out[1] uo_out[3] VPWR
X0 a_13289_43697# uo_out[2].t2 VPWR.t73 VPWR.t72 sky130_fd_pr__pfet_01v8_hvt ad=0.1664 pd=1.8 as=0.0864 ps=0.91 w=0.64 l=0.15
X1 a_16868_43697# a_17160_43997# a_17111_44089# VPWR.t81 sky130_fd_pr__pfet_01v8_hvt ad=0.0567 pd=0.69 as=0.0882 ps=0.84 w=0.42 l=0.15
X2 a_16596_43697# a_16868_43697# VGND.t59 VGND.t24 sky130_fd_pr__nfet_01v8 ad=0.169 pd=1.82 as=0.08775 ps=0.92 w=0.65 l=0.15
X3 VPWR.t77 a_12637_43697# freq_divider_0.sky130_fd_sc_hd__dfxbp_1_3.Q_N VPWR.t76 sky130_fd_pr__pfet_01v8_hvt ad=0.154 pd=1.335 as=0.26 ps=2.52 w=1 l=0.15
X4 VGND.t76 uo_out[0].t2 ring_0/skullfet_inverter_6.A VGND.t75 sky130_fd_pr__nfet_01v8 ad=4.2687 pd=10.82 as=6.4314 ps=26.72 w=4.05 l=0.4
X5 a_17360_43697# a_17160_43997# a_17509_43723# VGND.t16 sky130_fd_pr__nfet_01v8 ad=0.0621 pd=0.705 as=0.0696 ps=0.765 w=0.36 l=0.15
X6 VGND.t70 a_14569_43697# freq_divider_0.sky130_fd_sc_hd__dfxbp_1_2.Q_N VGND.t4 sky130_fd_pr__nfet_01v8 ad=0.097 pd=0.975 as=0.169 ps=1.82 w=0.65 l=0.15
X7 VGND.t33 ring_0/skullfet_inverter_12.A ring_0/skullfet_inverter_13.A VGND.t32 sky130_fd_pr__nfet_01v8 ad=4.2687 pd=10.82 as=6.4314 ps=26.72 w=4.05 l=0.4
X8 a_15221_43697# uo_out[1].t2 VPWR.t9 VPWR.t8 sky130_fd_pr__pfet_01v8_hvt ad=0.1664 pd=1.8 as=0.0864 ps=0.91 w=0.64 l=0.15
X9 VPWR.t75 freq_divider_0.sky130_fd_sc_hd__dfxbp_1_3.Q_N a_13843_43723# VPWR.t74 sky130_fd_pr__pfet_01v8_hvt ad=0.1092 pd=1.36 as=0.05775 ps=0.695 w=0.42 l=0.15
X10 a_15179_44089# a_14664_43697# VPWR.t33 VPWR.t32 sky130_fd_pr__pfet_01v8_hvt ad=0.0882 pd=0.84 as=0.1113 ps=1.37 w=0.42 l=0.15
X11 VGND.t38 ring_0/skullfet_inverter_19.A ring_0/skullfet_inverter_20.A VGND.t37 sky130_fd_pr__nfet_01v8 ad=4.2687 pd=10.82 as=6.4314 ps=26.72 w=4.05 l=0.4
X12 ring_0/skullfet_inverter_6.A uo_out[0].t3 VPWR.t37 VPWR.t36 sky130_fd_pr__pfet_01v8 ad=6.2694 pd=26.64 as=4.4307 ps=10.9 w=4.05 l=0.4
X13 a_15577_43723# a_15357_43723# VGND.t41 VGND.t10 sky130_fd_pr__nfet_01v8 ad=0.0696 pd=0.765 as=0.12095 ps=1.085 w=0.42 l=0.15
X14 VGND.t29 a_14664_43697# uo_out[2].t1 VGND.t4 sky130_fd_pr__nfet_01v8 ad=0.08775 pd=0.92 as=0.169 ps=1.82 w=0.65 l=0.15
X15 VPWR.t71 a_13289_43697# a_13296_43997# VPWR.t70 sky130_fd_pr__pfet_01v8_hvt ad=0.0864 pd=0.91 as=0.1664 ps=1.8 w=0.64 l=0.15
X16 VGND.t74 a_15221_43697# a_15228_43997# VGND.t10 sky130_fd_pr__nfet_01v8 ad=0.0567 pd=0.69 as=0.1092 ps=1.36 w=0.42 l=0.15
X17 VGND.t52 ring_0/skullfet_inverter_2.A ring_0/skullfet_inverter_3.A VGND.t51 sky130_fd_pr__nfet_01v8 ad=4.2687 pd=10.82 as=6.4314 ps=26.72 w=4.05 l=0.4
X18 a_13843_43723# a_13296_43997# a_13496_43697# VPWR.t99 sky130_fd_pr__pfet_01v8_hvt ad=0.05775 pd=0.695 as=0.06825 ps=0.745 w=0.42 l=0.15
X19 ring_0/skullfet_inverter_13.A ring_0/skullfet_inverter_12.A VPWR.t43 VPWR.t42 sky130_fd_pr__pfet_01v8 ad=6.2694 pd=26.64 as=4.4307 ps=10.9 w=4.05 l=0.4
X20 VGND.t73 ring_0/skullfet_inverter_7.A ring_0/skullfet_inverter_8.A VGND.t72 sky130_fd_pr__nfet_01v8 ad=4.2687 pd=10.82 as=6.4314 ps=26.72 w=4.05 l=0.4
X21 a_16501_43697# a_16596_43697# VGND.t26 VGND.t22 sky130_fd_pr__nfet_01v8 ad=0.1092 pd=1.36 as=0.097 ps=0.975 w=0.42 l=0.15
X22 a_12637_43697# a_12732_43697# VPWR.t63 VPWR.t62 sky130_fd_pr__pfet_01v8_hvt ad=0.1664 pd=1.8 as=0.154 ps=1.335 w=0.64 l=0.15
X23 ring_0/skullfet_inverter_16.A ring_0/skullfet_inverter_15.A VGND.t36 VGND.t35 sky130_fd_pr__nfet_01v8 ad=6.4314 pd=26.72 as=4.2687 ps=10.82 w=4.05 l=0.4
X24 VGND.t19 ring_0/skullfet_inverter_11.A ring_0/skullfet_inverter_12.A VGND.t18 sky130_fd_pr__nfet_01v8 ad=4.2687 pd=10.82 as=6.4314 ps=26.72 w=4.05 l=0.4
X25 a_17289_43723# a_17153_43697# a_16868_43697# VPWR.t17 sky130_fd_pr__pfet_01v8_hvt ad=0.1095 pd=1.075 as=0.0567 ps=0.69 w=0.42 l=0.15
X26 a_13224_43723# a_12732_43697# VGND.t49 VGND.t10 sky130_fd_pr__nfet_01v8 ad=0.066 pd=0.745 as=0.1092 ps=1.36 w=0.42 l=0.15
X27 VPWR.t31 a_14664_43697# uo_out[2].t0 VPWR.t30 sky130_fd_pr__pfet_01v8_hvt ad=0.135 pd=1.27 as=0.26 ps=2.52 w=1 l=0.15
X28 ring_0/skullfet_inverter_15.A ring_0/skullfet_inverter_14.A VGND.t69 VGND.t68 sky130_fd_pr__nfet_01v8 ad=6.4314 pd=26.72 as=4.2687 ps=10.82 w=4.05 l=0.4
X29 VPWR.t111 ring_0/skullfet_inverter_17.A ring_0/skullfet_inverter_18.A VPWR.t110 sky130_fd_pr__pfet_01v8 ad=4.4307 pd=10.9 as=6.2694 ps=26.64 w=4.05 l=0.4
X30 VGND.t78 ring_0/skullfet_inverter_1.A ring_0/skullfet_inverter_2.A VGND.t77 sky130_fd_pr__nfet_01v8 ad=4.2687 pd=10.82 as=6.4314 ps=26.72 w=4.05 l=0.4
X31 a_17707_43723# a_17153_43697# a_17360_43697# VGND.t17 sky130_fd_pr__nfet_01v8 ad=0.0813 pd=0.83 as=0.0621 ps=0.705 w=0.36 l=0.15
X32 VGND.t14 ring_0/skullfet_inverter_20.Y ring_0/skullfet_inverter_1.A VGND.t13 sky130_fd_pr__nfet_01v8 ad=4.2687 pd=10.82 as=6.4314 ps=26.72 w=4.05 l=0.4
X33 a_15156_43723# a_14664_43697# VGND.t28 VGND.t10 sky130_fd_pr__nfet_01v8 ad=0.066 pd=0.745 as=0.1092 ps=1.36 w=0.42 l=0.15
X34 a_14936_43697# a_15228_43997# a_15179_44089# VPWR.t35 sky130_fd_pr__pfet_01v8_hvt ad=0.0567 pd=0.69 as=0.0882 ps=0.84 w=0.42 l=0.15
X35 a_13289_43697# uo_out[2].t3 VGND.t54 VGND.t10 sky130_fd_pr__nfet_01v8 ad=0.1092 pd=1.36 as=0.0567 ps=0.69 w=0.42 l=0.15
X36 ring_0/skullfet_inverter_8.A ring_0/skullfet_inverter_7.A VPWR.t103 VPWR.t102 sky130_fd_pr__pfet_01v8 ad=6.2694 pd=26.64 as=4.4307 ps=10.9 w=4.05 l=0.4
X37 ring_0/skullfet_inverter_12.A ring_0/skullfet_inverter_11.A VPWR.t19 VPWR.t18 sky130_fd_pr__pfet_01v8 ad=6.2694 pd=26.64 as=4.4307 ps=10.9 w=4.05 l=0.4
X38 ring_0/skullfet_inverter_2.A ring_0/skullfet_inverter_1.A VPWR.t109 VPWR.t108 sky130_fd_pr__pfet_01v8 ad=6.2694 pd=26.64 as=4.4307 ps=10.9 w=4.05 l=0.4
X39 ring_0/skullfet_inverter_9.A ring_0/skullfet_inverter_8.A VPWR.t57 VPWR.t56 sky130_fd_pr__pfet_01v8 ad=6.2694 pd=26.64 as=4.4307 ps=10.9 w=4.05 l=0.4
X40 VGND.t12 freq_divider_0.sky130_fd_sc_hd__dfxbp_1_1.Q_N a_17707_43723# VGND.t2 sky130_fd_pr__nfet_01v8 ad=0.1092 pd=1.36 as=0.0813 ps=0.83 w=0.42 l=0.15
X41 a_14664_43697# a_14936_43697# VGND.t5 VGND.t4 sky130_fd_pr__nfet_01v8 ad=0.169 pd=1.82 as=0.08775 ps=0.92 w=0.65 l=0.15
X42 a_15428_43697# a_15228_43997# a_15577_43723# VGND.t30 sky130_fd_pr__nfet_01v8 ad=0.0621 pd=0.705 as=0.0696 ps=0.765 w=0.36 l=0.15
X43 VGND.t56 a_12637_43697# freq_divider_0.sky130_fd_sc_hd__dfxbp_1_3.Q_N VGND.t4 sky130_fd_pr__nfet_01v8 ad=0.097 pd=0.975 as=0.169 ps=1.82 w=0.65 l=0.15
X44 VGND.t71 a_13496_43697# a_13425_43723# VGND.t63 sky130_fd_pr__nfet_01v8 ad=0.12095 pd=1.085 as=0.0989 ps=0.995 w=0.64 l=0.15
X45 a_13247_44089# a_12732_43697# VPWR.t61 VPWR.t60 sky130_fd_pr__pfet_01v8_hvt ad=0.0882 pd=0.84 as=0.1113 ps=1.37 w=0.42 l=0.15
X46 a_15221_43697# uo_out[1].t3 VGND.t11 VGND.t10 sky130_fd_pr__nfet_01v8 ad=0.1092 pd=1.36 as=0.0567 ps=0.69 w=0.42 l=0.15
X47 a_16868_43697# a_17153_43697# a_17088_43723# VGND.t16 sky130_fd_pr__nfet_01v8 ad=0.0684 pd=0.74 as=0.066 ps=0.745 w=0.36 l=0.15
X48 a_13645_43723# a_13425_43723# VGND.t62 VGND.t10 sky130_fd_pr__nfet_01v8 ad=0.0696 pd=0.765 as=0.12095 ps=1.085 w=0.42 l=0.15
X49 VPWR.t1 ring_0/skullfet_inverter_16.A ring_0/skullfet_inverter_17.A VPWR.t0 sky130_fd_pr__pfet_01v8 ad=4.4307 pd=10.9 as=6.2694 ps=26.64 w=4.05 l=0.4
X50 VPWR.t85 ring_0/skullfet_inverter_18.A ring_0/skullfet_inverter_19.A VPWR.t84 sky130_fd_pr__pfet_01v8 ad=4.4307 pd=10.9 as=6.2694 ps=26.64 w=4.05 l=0.4
X51 VGND.t64 a_15428_43697# a_15357_43723# VGND.t63 sky130_fd_pr__nfet_01v8 ad=0.12095 pd=1.085 as=0.0989 ps=0.995 w=0.64 l=0.15
X52 VGND.t48 a_12732_43697# uo_out[3].t1 VGND.t4 sky130_fd_pr__nfet_01v8 ad=0.08775 pd=0.92 as=0.169 ps=1.82 w=0.65 l=0.15
X53 VGND.t21 ring_0/skullfet_inverter_6.A ring_0/skullfet_inverter_7.A VGND.t20 sky130_fd_pr__nfet_01v8 ad=4.2687 pd=10.82 as=6.4314 ps=26.72 w=4.05 l=0.4
X54 VPWR.t79 a_17360_43697# a_17289_43723# VPWR.t78 sky130_fd_pr__pfet_01v8_hvt ad=0.178875 pd=1.26 as=0.1095 ps=1.075 w=0.75 l=0.15
X55 a_14664_43697# a_14936_43697# VPWR.t3 VPWR.t2 sky130_fd_pr__pfet_01v8_hvt ad=0.27 pd=2.54 as=0.135 ps=1.27 w=1 l=0.15
X56 VGND.t53 a_13289_43697# a_13296_43997# VGND.t10 sky130_fd_pr__nfet_01v8 ad=0.0567 pd=0.69 as=0.1092 ps=1.36 w=0.42 l=0.15
X57 ring_0/skullfet_inverter_1.A ring_0/skullfet_inverter_20.Y VPWR.t13 VPWR.t12 sky130_fd_pr__pfet_01v8 ad=6.2694 pd=26.64 as=4.4307 ps=10.9 w=4.05 l=0.4
X58 VPWR.t47 ring_0/skullfet_inverter_15.A ring_0/skullfet_inverter_16.A VPWR.t46 sky130_fd_pr__pfet_01v8 ad=4.4307 pd=10.9 as=6.2694 ps=26.64 w=4.05 l=0.4
X59 ring_0/skullfet_inverter_20.A ring_0/skullfet_inverter_19.A VPWR.t49 VPWR.t48 sky130_fd_pr__pfet_01v8 ad=6.2694 pd=26.64 as=4.4307 ps=10.9 w=4.05 l=0.4
X60 a_14569_43697# a_14664_43697# VGND.t27 VGND.t10 sky130_fd_pr__nfet_01v8 ad=0.1092 pd=1.36 as=0.097 ps=0.975 w=0.42 l=0.15
X61 a_15604_44089# a_15357_43723# VPWR.t53 VPWR.t52 sky130_fd_pr__pfet_01v8_hvt ad=0.07665 pd=0.785 as=0.178875 ps=1.26 w=0.42 l=0.15
X62 a_15357_43723# a_15221_43697# a_14936_43697# VPWR.t107 sky130_fd_pr__pfet_01v8_hvt ad=0.1095 pd=1.075 as=0.0567 ps=0.69 w=0.42 l=0.15
X63 a_15428_43697# a_15221_43697# a_15604_44089# VPWR.t106 sky130_fd_pr__pfet_01v8_hvt ad=0.06825 pd=0.745 as=0.07665 ps=0.785 w=0.42 l=0.15
X64 a_12732_43697# a_13004_43697# VGND.t67 VGND.t4 sky130_fd_pr__nfet_01v8 ad=0.169 pd=1.82 as=0.08775 ps=0.92 w=0.65 l=0.15
X65 VGND.t7 ring_0/skullfet_inverter_4.A uo_out[0].t1 VGND.t6 sky130_fd_pr__nfet_01v8 ad=4.2687 pd=10.82 as=6.4314 ps=26.72 w=4.05 l=0.4
X66 a_17289_43723# a_17160_43997# a_16868_43697# VGND.t16 sky130_fd_pr__nfet_01v8 ad=0.0989 pd=0.995 as=0.0684 ps=0.74 w=0.36 l=0.15
X67 VPWR.t11 freq_divider_0.sky130_fd_sc_hd__dfxbp_1_1.Q_N a_17707_43723# VPWR.t10 sky130_fd_pr__pfet_01v8_hvt ad=0.1092 pd=1.36 as=0.05775 ps=0.695 w=0.42 l=0.15
X68 VPWR.t59 a_12732_43697# uo_out[3].t0 VPWR.t58 sky130_fd_pr__pfet_01v8_hvt ad=0.135 pd=1.27 as=0.26 ps=2.52 w=1 l=0.15
X69 VGND.t66 ring_0/skullfet_inverter_10.A ring_0/skullfet_inverter_11.A VGND.t65 sky130_fd_pr__nfet_01v8 ad=4.2687 pd=10.82 as=6.4314 ps=26.72 w=4.05 l=0.4
X70 ring_0/skullfet_inverter_10.A ring_0/skullfet_inverter_9.A VPWR.t7 VPWR.t6 sky130_fd_pr__pfet_01v8 ad=6.2694 pd=26.64 as=4.4307 ps=10.9 w=4.05 l=0.4
X71 VPWR.t113 ring_0/skullfet_inverter_13.A ring_0/skullfet_inverter_14.A VPWR.t112 sky130_fd_pr__pfet_01v8 ad=4.4307 pd=10.9 as=6.2694 ps=26.64 w=4.05 l=0.4
X72 ring_0/skullfet_inverter_7.A ring_0/skullfet_inverter_6.A VPWR.t21 VPWR.t20 sky130_fd_pr__pfet_01v8 ad=6.2694 pd=26.64 as=4.4307 ps=10.9 w=4.05 l=0.4
X73 a_17153_43697# uo_out[0].t4 VPWR.t41 VPWR.t40 sky130_fd_pr__pfet_01v8_hvt ad=0.1664 pd=1.8 as=0.0864 ps=0.91 w=0.64 l=0.15
X74 a_17536_44089# a_17289_43723# VPWR.t39 VPWR.t38 sky130_fd_pr__pfet_01v8_hvt ad=0.07665 pd=0.785 as=0.178875 ps=1.26 w=0.42 l=0.15
X75 a_15775_43723# a_15221_43697# a_15428_43697# VGND.t30 sky130_fd_pr__nfet_01v8 ad=0.0813 pd=0.83 as=0.0621 ps=0.705 w=0.36 l=0.15
X76 a_17360_43697# a_17153_43697# a_17536_44089# VPWR.t16 sky130_fd_pr__pfet_01v8_hvt ad=0.06825 pd=0.745 as=0.07665 ps=0.785 w=0.42 l=0.15
X77 a_17111_44089# a_16596_43697# VPWR.t27 VPWR.t26 sky130_fd_pr__pfet_01v8_hvt ad=0.0882 pd=0.84 as=0.1113 ps=1.37 w=0.42 l=0.15
X78 a_13004_43697# a_13296_43997# a_13247_44089# VPWR.t98 sky130_fd_pr__pfet_01v8_hvt ad=0.0567 pd=0.69 as=0.0882 ps=0.84 w=0.42 l=0.15
X79 VPWR.t65 a_16501_43697# freq_divider_0.sky130_fd_sc_hd__dfxbp_1_1.Q_N VPWR.t64 sky130_fd_pr__pfet_01v8_hvt ad=0.154 pd=1.335 as=0.26 ps=2.52 w=1 l=0.15
X80 a_12732_43697# a_13004_43697# VPWR.t93 VPWR.t92 sky130_fd_pr__pfet_01v8_hvt ad=0.27 pd=2.54 as=0.135 ps=1.27 w=1 l=0.15
X81 VGND.t43 ring_0/skullfet_inverter_3.A ring_0/skullfet_inverter_4.A VGND.t42 sky130_fd_pr__nfet_01v8 ad=4.2687 pd=10.82 as=6.4314 ps=26.72 w=4.05 l=0.4
X82 VGND.t34 freq_divider_0.sky130_fd_sc_hd__dfxbp_1_2.Q_N a_15775_43723# VGND.t10 sky130_fd_pr__nfet_01v8 ad=0.1092 pd=1.36 as=0.0813 ps=0.83 w=0.42 l=0.15
X83 a_13496_43697# a_13296_43997# a_13645_43723# VGND.t30 sky130_fd_pr__nfet_01v8 ad=0.0621 pd=0.705 as=0.0696 ps=0.765 w=0.36 l=0.15
X84 uo_out[0].t0 ring_0/skullfet_inverter_4.A VPWR.t5 VPWR.t4 sky130_fd_pr__pfet_01v8 ad=6.2694 pd=26.64 as=4.4307 ps=10.9 w=4.05 l=0.4
X85 ring_0/skullfet_inverter_11.A ring_0/skullfet_inverter_10.A VPWR.t91 VPWR.t90 sky130_fd_pr__pfet_01v8 ad=6.2694 pd=26.64 as=4.4307 ps=10.9 w=4.05 l=0.4
X86 a_16501_43697# a_16596_43697# VPWR.t25 VPWR.t24 sky130_fd_pr__pfet_01v8_hvt ad=0.1664 pd=1.8 as=0.154 ps=1.335 w=0.64 l=0.15
X87 a_14936_43697# a_15221_43697# a_15156_43723# VGND.t30 sky130_fd_pr__nfet_01v8 ad=0.0684 pd=0.74 as=0.066 ps=0.745 w=0.36 l=0.15
X88 VPWR.t15 a_17153_43697# a_17160_43997# VPWR.t14 sky130_fd_pr__pfet_01v8_hvt ad=0.0864 pd=0.91 as=0.1664 ps=1.8 w=0.64 l=0.15
X89 VPWR.t89 a_15428_43697# a_15357_43723# VPWR.t88 sky130_fd_pr__pfet_01v8_hvt ad=0.178875 pd=1.26 as=0.1095 ps=1.075 w=0.75 l=0.15
X90 VGND.t9 ring_0/skullfet_inverter_9.A ring_0/skullfet_inverter_10.A VGND.t8 sky130_fd_pr__nfet_01v8 ad=4.2687 pd=10.82 as=6.4314 ps=26.72 w=4.05 l=0.4
X91 ring_0/skullfet_inverter_4.A ring_0/skullfet_inverter_3.A VPWR.t55 VPWR.t54 sky130_fd_pr__pfet_01v8 ad=6.2694 pd=26.64 as=4.4307 ps=10.9 w=4.05 l=0.4
X92 ring_0/skullfet_inverter_14.A ring_0/skullfet_inverter_13.A VGND.t82 VGND.t81 sky130_fd_pr__nfet_01v8 ad=6.4314 pd=26.72 as=4.2687 ps=10.82 w=4.05 l=0.4
X93 a_13425_43723# a_13296_43997# a_13004_43697# VGND.t30 sky130_fd_pr__nfet_01v8 ad=0.0989 pd=0.995 as=0.0684 ps=0.74 w=0.36 l=0.15
X94 ring_0/skullfet_inverter_20.Y ring_0/skullfet_inverter_20.A VPWR.t51 VPWR.t50 sky130_fd_pr__pfet_01v8 ad=6.2694 pd=26.64 as=4.4307 ps=10.9 w=4.05 l=0.4
X95 a_12637_43697# a_12732_43697# VGND.t47 VGND.t46 sky130_fd_pr__nfet_01v8 ad=0.1092 pd=1.36 as=0.097 ps=0.975 w=0.42 l=0.15
X96 a_13672_44089# a_13425_43723# VPWR.t87 VPWR.t86 sky130_fd_pr__pfet_01v8_hvt ad=0.07665 pd=0.785 as=0.178875 ps=1.26 w=0.42 l=0.15
X97 ring_0/skullfet_inverter_18.A ring_0/skullfet_inverter_17.A VGND.t80 VGND.t79 sky130_fd_pr__nfet_01v8 ad=6.4314 pd=26.72 as=4.2687 ps=10.82 w=4.05 l=0.4
X98 a_13425_43723# a_13289_43697# a_13004_43697# VPWR.t69 sky130_fd_pr__pfet_01v8_hvt ad=0.1095 pd=1.075 as=0.0567 ps=0.69 w=0.42 l=0.15
X99 a_13496_43697# a_13289_43697# a_13672_44089# VPWR.t68 sky130_fd_pr__pfet_01v8_hvt ad=0.06825 pd=0.745 as=0.07665 ps=0.785 w=0.42 l=0.15
X100 VPWR.t97 a_14569_43697# freq_divider_0.sky130_fd_sc_hd__dfxbp_1_2.Q_N VPWR.t96 sky130_fd_pr__pfet_01v8_hvt ad=0.154 pd=1.335 as=0.26 ps=2.52 w=1 l=0.15
X101 a_15357_43723# a_15228_43997# a_14936_43697# VGND.t30 sky130_fd_pr__nfet_01v8 ad=0.0989 pd=0.995 as=0.0684 ps=0.74 w=0.36 l=0.15
X102 VPWR.t45 freq_divider_0.sky130_fd_sc_hd__dfxbp_1_2.Q_N a_15775_43723# VPWR.t44 sky130_fd_pr__pfet_01v8_hvt ad=0.1092 pd=1.36 as=0.05775 ps=0.695 w=0.42 l=0.15
X103 VPWR.t95 ring_0/skullfet_inverter_14.A ring_0/skullfet_inverter_15.A VPWR.t94 sky130_fd_pr__pfet_01v8 ad=4.4307 pd=10.9 as=6.2694 ps=26.64 w=4.05 l=0.4
X104 a_17153_43697# uo_out[0].t5 VGND.t3 VGND.t2 sky130_fd_pr__nfet_01v8 ad=0.1092 pd=1.36 as=0.0567 ps=0.69 w=0.42 l=0.15
X105 a_13843_43723# a_13289_43697# a_13496_43697# VGND.t30 sky130_fd_pr__nfet_01v8 ad=0.0813 pd=0.83 as=0.0621 ps=0.705 w=0.36 l=0.15
X106 a_17509_43723# a_17289_43723# VGND.t31 VGND.t22 sky130_fd_pr__nfet_01v8 ad=0.0696 pd=0.765 as=0.12095 ps=1.085 w=0.42 l=0.15
X107 VGND.t25 a_16596_43697# uo_out[1].t1 VGND.t24 sky130_fd_pr__nfet_01v8 ad=0.08775 pd=0.92 as=0.169 ps=1.82 w=0.65 l=0.15
X108 a_13004_43697# a_13289_43697# a_13224_43723# VGND.t30 sky130_fd_pr__nfet_01v8 ad=0.0684 pd=0.74 as=0.066 ps=0.745 w=0.36 l=0.15
X109 VGND.t58 a_17360_43697# a_17289_43723# VGND.t57 sky130_fd_pr__nfet_01v8 ad=0.12095 pd=1.085 as=0.0989 ps=0.995 w=0.64 l=0.15
X110 VGND.t50 a_16501_43697# freq_divider_0.sky130_fd_sc_hd__dfxbp_1_1.Q_N VGND.t4 sky130_fd_pr__nfet_01v8 ad=0.097 pd=0.975 as=0.169 ps=1.82 w=0.65 l=0.15
X111 VPWR.t105 a_15221_43697# a_15228_43997# VPWR.t104 sky130_fd_pr__pfet_01v8_hvt ad=0.0864 pd=0.91 as=0.1664 ps=1.8 w=0.64 l=0.15
X112 VGND.t55 freq_divider_0.sky130_fd_sc_hd__dfxbp_1_3.Q_N a_13843_43723# VGND.t10 sky130_fd_pr__nfet_01v8 ad=0.1092 pd=1.36 as=0.0813 ps=0.83 w=0.42 l=0.15
X113 a_15775_43723# a_15228_43997# a_15428_43697# VPWR.t34 sky130_fd_pr__pfet_01v8_hvt ad=0.05775 pd=0.695 as=0.06825 ps=0.745 w=0.42 l=0.15
X114 ring_0/skullfet_inverter_19.A ring_0/skullfet_inverter_18.A VGND.t61 VGND.t60 sky130_fd_pr__nfet_01v8 ad=6.4314 pd=26.72 as=4.2687 ps=10.82 w=4.05 l=0.4
X115 a_16596_43697# a_16868_43697# VPWR.t83 VPWR.t82 sky130_fd_pr__pfet_01v8_hvt ad=0.27 pd=2.54 as=0.135 ps=1.27 w=1 l=0.15
X116 a_14569_43697# a_14664_43697# VPWR.t29 VPWR.t28 sky130_fd_pr__pfet_01v8_hvt ad=0.1664 pd=1.8 as=0.154 ps=1.335 w=0.64 l=0.15
X117 VGND.t40 ring_0/skullfet_inverter_20.A ring_0/skullfet_inverter_20.Y VGND.t39 sky130_fd_pr__nfet_01v8 ad=4.2687 pd=10.82 as=6.4314 ps=26.72 w=4.05 l=0.4
X118 ring_0/skullfet_inverter_17.A ring_0/skullfet_inverter_16.A VGND.t1 VGND.t0 sky130_fd_pr__nfet_01v8 ad=6.4314 pd=26.72 as=4.2687 ps=10.82 w=4.05 l=0.4
X119 a_17707_43723# a_17160_43997# a_17360_43697# VPWR.t80 sky130_fd_pr__pfet_01v8_hvt ad=0.05775 pd=0.695 as=0.06825 ps=0.745 w=0.42 l=0.15
X120 VPWR.t23 a_16596_43697# uo_out[1].t0 VPWR.t22 sky130_fd_pr__pfet_01v8_hvt ad=0.135 pd=1.27 as=0.26 ps=2.52 w=1 l=0.15
X121 VGND.t45 ring_0/skullfet_inverter_8.A ring_0/skullfet_inverter_9.A VGND.t44 sky130_fd_pr__nfet_01v8 ad=4.2687 pd=10.82 as=6.4314 ps=26.72 w=4.05 l=0.4
X122 VPWR.t101 a_13496_43697# a_13425_43723# VPWR.t100 sky130_fd_pr__pfet_01v8_hvt ad=0.178875 pd=1.26 as=0.1095 ps=1.075 w=0.75 l=0.15
X123 ring_0/skullfet_inverter_3.A ring_0/skullfet_inverter_2.A VPWR.t67 VPWR.t66 sky130_fd_pr__pfet_01v8 ad=6.2694 pd=26.64 as=4.4307 ps=10.9 w=4.05 l=0.4
X124 VGND.t15 a_17153_43697# a_17160_43997# VGND.t2 sky130_fd_pr__nfet_01v8 ad=0.0567 pd=0.69 as=0.1092 ps=1.36 w=0.42 l=0.15
X125 a_17088_43723# a_16596_43697# VGND.t23 VGND.t22 sky130_fd_pr__nfet_01v8 ad=0.066 pd=0.745 as=0.1092 ps=1.36 w=0.42 l=0.15
R0 uo_out[2].n2 uo_out[2].t0 313.104
R1 uo_out[2].n0 uo_out[2].t2 294.557
R2 uo_out[2].t1 uo_out[2].n2 265.769
R3 uo_out[2] uo_out[2].t1 262.318
R4 uo_out[2].n0 uo_out[2].t3 211.01
R5 uo_out[2].n1 uo_out[2].n0 152
R6 uo_out[2].n5 uo_out[2] 16.2155
R7 uo_out[2].n4 uo_out[2].n1 11.6311
R8 uo_out[2].n4 uo_out[2].n3 9.3005
R9 uo_out[2].n3 uo_out[2] 7.17626
R10 uo_out[2].n3 uo_out[2].n2 4.84898
R11 uo_out[2].n5 uo_out[2].n4 4.51042
R12 uo_out[2].n1 uo_out[2] 1.37896
R13 uo_out[2] uo_out[2].n5 0.0730806
R14 VPWR.n5 VPWR.t43 739.681
R15 VPWR.n3 VPWR.t113 739.681
R16 VPWR.n230 VPWR.t1 739.681
R17 VPWR.n227 VPWR.t51 739.681
R18 VPWR.n224 VPWR.t109 739.681
R19 VPWR.n366 VPWR.t91 739.681
R20 VPWR.n278 VPWR.t85 739.681
R21 VPWR.n280 VPWR.t49 739.681
R22 VPWR.n228 VPWR.t111 739.681
R23 VPWR.n232 VPWR.t47 739.681
R24 VPWR.n0 VPWR.t95 739.681
R25 VPWR.n7 VPWR.t19 739.681
R26 VPWR.n225 VPWR.t13 739.681
R27 VPWR.n222 VPWR.t67 739.681
R28 VPWR.n177 VPWR.t37 739.681
R29 VPWR.n173 VPWR.t21 739.681
R30 VPWR.n152 VPWR.t103 739.681
R31 VPWR.n360 VPWR.t57 739.681
R32 VPWR.n363 VPWR.t7 739.681
R33 VPWR.n199 VPWR.t5 739.681
R34 VPWR.n288 VPWR.t55 739.681
R35 VPWR.n7 VPWR.t18 707.852
R36 VPWR.n5 VPWR.t42 707.852
R37 VPWR.n3 VPWR.t112 707.852
R38 VPWR.n230 VPWR.t0 707.852
R39 VPWR.n227 VPWR.t50 707.852
R40 VPWR.n225 VPWR.t12 707.852
R41 VPWR.n224 VPWR.t108 707.852
R42 VPWR.n222 VPWR.t66 707.852
R43 VPWR.n177 VPWR.t36 707.852
R44 VPWR.n173 VPWR.t20 707.852
R45 VPWR.n152 VPWR.t102 707.852
R46 VPWR.n360 VPWR.t56 707.852
R47 VPWR.n363 VPWR.t6 707.852
R48 VPWR.n366 VPWR.t90 707.852
R49 VPWR.n199 VPWR.t4 707.852
R50 VPWR.n288 VPWR.t54 707.852
R51 VPWR.n278 VPWR.t84 707.852
R52 VPWR.n280 VPWR.t48 707.852
R53 VPWR.n228 VPWR.t110 707.852
R54 VPWR.n232 VPWR.t46 707.852
R55 VPWR.n0 VPWR.t94 707.852
R56 VPWR.n92 VPWR.t61 667.734
R57 VPWR.n60 VPWR.t33 667.734
R58 VPWR.n130 VPWR.t27 667.734
R59 VPWR.n107 VPWR.t75 666.677
R60 VPWR.n46 VPWR.t45 666.677
R61 VPWR.n144 VPWR.t11 666.677
R62 VPWR.t82 VPWR.t26 624.456
R63 VPWR.t32 VPWR.t2 624.456
R64 VPWR.t60 VPWR.t92 624.456
R65 VPWR.n110 VPWR.n109 604.394
R66 VPWR.n39 VPWR.n38 604.394
R67 VPWR.n148 VPWR.n10 604.394
R68 VPWR.t10 VPWR.t14 556.386
R69 VPWR.t24 VPWR.t22 556.386
R70 VPWR.t104 VPWR.t44 556.386
R71 VPWR.t30 VPWR.t28 556.386
R72 VPWR.t70 VPWR.t74 556.386
R73 VPWR.t58 VPWR.t62 556.386
R74 VPWR.n118 VPWR.t64 414.33
R75 VPWR.t96 VPWR.n116 414.33
R76 VPWR.t78 VPWR.t38 390.654
R77 VPWR.t52 VPWR.t88 390.654
R78 VPWR.t86 VPWR.t100 390.654
R79 VPWR.t26 VPWR.t81 337.384
R80 VPWR.t35 VPWR.t32 337.384
R81 VPWR.t98 VPWR.t60 337.384
R82 VPWR.n90 VPWR.n80 333.348
R83 VPWR.n62 VPWR.n30 333.348
R84 VPWR.n18 VPWR.n17 333.348
R85 VPWR.n76 VPWR.n75 320.976
R86 VPWR.n53 VPWR.n34 320.976
R87 VPWR.n137 VPWR.n14 320.976
R88 VPWR.t38 VPWR.t16 304.829
R89 VPWR.t106 VPWR.t52 304.829
R90 VPWR.t68 VPWR.t86 304.829
R91 VPWR.t64 VPWR.t24 287.072
R92 VPWR.t28 VPWR.t96 287.072
R93 VPWR.t62 VPWR.t76 287.072
R94 VPWR.t16 VPWR.t80 281.154
R95 VPWR.t17 VPWR.t78 281.154
R96 VPWR.t34 VPWR.t106 281.154
R97 VPWR.t88 VPWR.t107 281.154
R98 VPWR.t99 VPWR.t68 281.154
R99 VPWR.t100 VPWR.t69 281.154
R100 VPWR.n118 VPWR.n117 272.274
R101 VPWR.n117 VPWR 272.274
R102 VPWR.n116 VPWR.n115 272.274
R103 VPWR.n115 VPWR 272.274
R104 VPWR.t80 VPWR.t10 251.559
R105 VPWR.t44 VPWR.t34 251.559
R106 VPWR.t74 VPWR.t99 251.559
R107 VPWR.t14 VPWR.t40 248.599
R108 VPWR.t81 VPWR.t17 248.599
R109 VPWR.t22 VPWR.t82 248.599
R110 VPWR.t8 VPWR.t104 248.599
R111 VPWR.t107 VPWR.t35 248.599
R112 VPWR.t2 VPWR.t30 248.599
R113 VPWR.t72 VPWR.t70 248.599
R114 VPWR.t69 VPWR.t98 248.599
R115 VPWR.t92 VPWR.t58 248.599
R116 VPWR.n84 VPWR.n83 240.522
R117 VPWR.n68 VPWR.n27 240.522
R118 VPWR.n21 VPWR.n20 240.522
R119 VPWR.n115 VPWR.n114 213.119
R120 VPWR.n116 VPWR.n24 213.119
R121 VPWR.n117 VPWR.n22 213.119
R122 VPWR.n119 VPWR.n118 213.119
R123 VPWR.n75 VPWR.t87 113.98
R124 VPWR.n34 VPWR.t53 113.98
R125 VPWR.n14 VPWR.t39 113.98
R126 VPWR.t40 VPWR 91.745
R127 VPWR VPWR.t8 91.745
R128 VPWR VPWR.t72 91.745
R129 VPWR.n83 VPWR.t63 61.9872
R130 VPWR.n27 VPWR.t29 61.9872
R131 VPWR.n20 VPWR.t25 61.9872
R132 VPWR.n109 VPWR.t73 41.5552
R133 VPWR.n109 VPWR.t71 41.5552
R134 VPWR.n38 VPWR.t9 41.5552
R135 VPWR.n38 VPWR.t105 41.5552
R136 VPWR.n10 VPWR.t41 41.5552
R137 VPWR.n10 VPWR.t15 41.5552
R138 VPWR.n75 VPWR.t101 35.4605
R139 VPWR.n34 VPWR.t89 35.4605
R140 VPWR.n14 VPWR.t79 35.4605
R141 VPWR.n89 VPWR.n81 34.6358
R142 VPWR.n85 VPWR.n81 34.6358
R143 VPWR.n103 VPWR.n73 34.6358
R144 VPWR.n103 VPWR.n102 34.6358
R145 VPWR.n102 VPWR.n101 34.6358
R146 VPWR.n98 VPWR.n97 34.6358
R147 VPWR.n97 VPWR.n96 34.6358
R148 VPWR.n96 VPWR.n78 34.6358
R149 VPWR.n63 VPWR.n28 34.6358
R150 VPWR.n67 VPWR.n28 34.6358
R151 VPWR.n48 VPWR.n47 34.6358
R152 VPWR.n48 VPWR.n35 34.6358
R153 VPWR.n52 VPWR.n35 34.6358
R154 VPWR.n55 VPWR.n54 34.6358
R155 VPWR.n55 VPWR.n32 34.6358
R156 VPWR.n59 VPWR.n32 34.6358
R157 VPWR.n126 VPWR.n125 34.6358
R158 VPWR.n125 VPWR.n124 34.6358
R159 VPWR.n143 VPWR.n142 34.6358
R160 VPWR.n142 VPWR.n12 34.6358
R161 VPWR.n138 VPWR.n12 34.6358
R162 VPWR.n136 VPWR.n135 34.6358
R163 VPWR.n135 VPWR.n15 34.6358
R164 VPWR.n131 VPWR.n15 34.6358
R165 VPWR.n91 VPWR.n90 32.0005
R166 VPWR.n62 VPWR.n61 32.0005
R167 VPWR.n129 VPWR.n18 32.0005
R168 VPWR.n149 VPWR.n148 30.7593
R169 VPWR.n92 VPWR.n91 30.4946
R170 VPWR.n61 VPWR.n60 30.4946
R171 VPWR.n130 VPWR.n129 30.4946
R172 VPWR.n83 VPWR.t77 30.1692
R173 VPWR.n27 VPWR.t97 30.1692
R174 VPWR.n20 VPWR.t65 30.1692
R175 VPWR.n107 VPWR.n73 27.4829
R176 VPWR.n69 VPWR.n68 27.4829
R177 VPWR.n47 VPWR.n46 27.4829
R178 VPWR.n120 VPWR.n21 27.4829
R179 VPWR.n144 VPWR.n143 27.4829
R180 VPWR.n80 VPWR.t93 26.5955
R181 VPWR.n80 VPWR.t59 26.5955
R182 VPWR.n30 VPWR.t3 26.5955
R183 VPWR.n30 VPWR.t31 26.5955
R184 VPWR.n17 VPWR.t83 26.5955
R185 VPWR.n17 VPWR.t23 26.5955
R186 VPWR.n85 VPWR.n84 25.6005
R187 VPWR.n68 VPWR.n67 25.6005
R188 VPWR.n124 VPWR.n21 25.6005
R189 VPWR.n114 VPWR.n25 23.7181
R190 VPWR.n69 VPWR.n24 23.7181
R191 VPWR.n41 VPWR.n22 23.7181
R192 VPWR.n120 VPWR.n119 23.7181
R193 VPWR.n110 VPWR.n108 22.9652
R194 VPWR.n45 VPWR.n39 22.9652
R195 VPWR.n148 VPWR.n9 22.9652
R196 VPWR.n108 VPWR.n107 21.8358
R197 VPWR.n46 VPWR.n45 21.8358
R198 VPWR.n144 VPWR.n9 21.8358
R199 VPWR.n110 VPWR.n25 21.4593
R200 VPWR.n41 VPWR.n39 21.4593
R201 VPWR.n101 VPWR.n76 18.4476
R202 VPWR.n53 VPWR.n52 18.4476
R203 VPWR.n138 VPWR.n137 18.4476
R204 VPWR.n150 VPWR.n149 16.5693
R205 VPWR.n98 VPWR.n76 16.1887
R206 VPWR.n54 VPWR.n53 16.1887
R207 VPWR.n137 VPWR.n136 16.1887
R208 VPWR.n92 VPWR.n78 15.0593
R209 VPWR.n60 VPWR.n59 15.0593
R210 VPWR.n131 VPWR.n130 15.0593
R211 VPWR.n8 VPWR.n7 13.377
R212 VPWR.n226 VPWR.n225 13.377
R213 VPWR.n223 VPWR.n222 13.377
R214 VPWR.n178 VPWR.n177 13.377
R215 VPWR.n174 VPWR.n173 13.377
R216 VPWR.n153 VPWR.n152 13.377
R217 VPWR.n361 VPWR.n360 13.377
R218 VPWR.n364 VPWR.n363 13.377
R219 VPWR.n200 VPWR.n199 13.377
R220 VPWR.n289 VPWR.n288 13.377
R221 VPWR VPWR.n5 13.3202
R222 VPWR.n4 VPWR.n3 13.3202
R223 VPWR.n231 VPWR.n230 13.3202
R224 VPWR VPWR.n227 13.3202
R225 VPWR VPWR.n224 13.3202
R226 VPWR VPWR.n366 13.3202
R227 VPWR.n279 VPWR.n278 13.3202
R228 VPWR VPWR.n280 13.3202
R229 VPWR.n229 VPWR.n228 13.3202
R230 VPWR.n233 VPWR.n232 13.3202
R231 VPWR.n373 VPWR.n0 13.3202
R232 VPWR.n114 VPWR.n24 12.8005
R233 VPWR.n119 VPWR.n22 12.8005
R234 VPWR.n283 VPWR 9.7375
R235 VPWR.n281 VPWR 9.39357
R236 VPWR.n148 VPWR.n147 9.3005
R237 VPWR.n146 VPWR.n9 9.3005
R238 VPWR.n145 VPWR.n144 9.3005
R239 VPWR.n143 VPWR.n11 9.3005
R240 VPWR.n142 VPWR.n141 9.3005
R241 VPWR.n140 VPWR.n12 9.3005
R242 VPWR.n139 VPWR.n138 9.3005
R243 VPWR.n136 VPWR.n13 9.3005
R244 VPWR.n135 VPWR.n134 9.3005
R245 VPWR.n133 VPWR.n15 9.3005
R246 VPWR.n132 VPWR.n131 9.3005
R247 VPWR.n130 VPWR.n16 9.3005
R248 VPWR.n129 VPWR.n128 9.3005
R249 VPWR.n127 VPWR.n126 9.3005
R250 VPWR.n125 VPWR.n19 9.3005
R251 VPWR.n124 VPWR.n123 9.3005
R252 VPWR.n122 VPWR.n21 9.3005
R253 VPWR.n121 VPWR.n120 9.3005
R254 VPWR.n119 VPWR.n23 9.3005
R255 VPWR.n40 VPWR.n22 9.3005
R256 VPWR.n42 VPWR.n41 9.3005
R257 VPWR.n43 VPWR.n39 9.3005
R258 VPWR.n45 VPWR.n44 9.3005
R259 VPWR.n46 VPWR.n37 9.3005
R260 VPWR.n47 VPWR.n36 9.3005
R261 VPWR.n49 VPWR.n48 9.3005
R262 VPWR.n50 VPWR.n35 9.3005
R263 VPWR.n52 VPWR.n51 9.3005
R264 VPWR.n54 VPWR.n33 9.3005
R265 VPWR.n56 VPWR.n55 9.3005
R266 VPWR.n57 VPWR.n32 9.3005
R267 VPWR.n59 VPWR.n58 9.3005
R268 VPWR.n60 VPWR.n31 9.3005
R269 VPWR.n61 VPWR.n29 9.3005
R270 VPWR.n64 VPWR.n63 9.3005
R271 VPWR.n65 VPWR.n28 9.3005
R272 VPWR.n67 VPWR.n66 9.3005
R273 VPWR.n68 VPWR.n26 9.3005
R274 VPWR.n70 VPWR.n69 9.3005
R275 VPWR.n71 VPWR.n24 9.3005
R276 VPWR.n114 VPWR.n113 9.3005
R277 VPWR.n112 VPWR.n25 9.3005
R278 VPWR.n111 VPWR.n110 9.3005
R279 VPWR.n108 VPWR.n72 9.3005
R280 VPWR.n107 VPWR.n106 9.3005
R281 VPWR.n105 VPWR.n73 9.3005
R282 VPWR.n104 VPWR.n103 9.3005
R283 VPWR.n102 VPWR.n74 9.3005
R284 VPWR.n101 VPWR.n100 9.3005
R285 VPWR.n99 VPWR.n98 9.3005
R286 VPWR.n97 VPWR.n77 9.3005
R287 VPWR.n96 VPWR.n95 9.3005
R288 VPWR.n94 VPWR.n78 9.3005
R289 VPWR.n93 VPWR.n92 9.3005
R290 VPWR.n91 VPWR.n79 9.3005
R291 VPWR.n89 VPWR.n88 9.3005
R292 VPWR.n87 VPWR.n81 9.3005
R293 VPWR.n86 VPWR.n85 9.3005
R294 VPWR.n369 VPWR.n8 8.51977
R295 VPWR.n285 VPWR 8.13646
R296 VPWR.n282 VPWR.n277 7.53241
R297 VPWR.n365 VPWR.n364 7.53109
R298 VPWR.n362 VPWR.n361 7.45619
R299 VPWR.n84 VPWR.n82 7.4049
R300 VPWR.n6 VPWR 7.19357
R301 VPWR.n358 VPWR.n153 6.79323
R302 VPWR.n284 VPWR.n226 6.76538
R303 VPWR.n367 VPWR 6.40107
R304 VPWR.n277 VPWR.n229 6.34337
R305 VPWR.n276 VPWR.n231 6.19552
R306 VPWR.n281 VPWR.n279 6.1805
R307 VPWR.n286 VPWR.n223 6.08268
R308 VPWR.n283 VPWR.n282 6.07848
R309 VPWR.n175 VPWR.n174 6.01772
R310 VPWR.n290 VPWR.n289 6.01019
R311 VPWR.n312 VPWR.n200 5.71852
R312 VPWR.n333 VPWR.n178 5.65925
R313 VPWR.n234 VPWR.n233 5.44488
R314 VPWR.n373 VPWR.n372 5.3655
R315 VPWR.n6 VPWR.n4 5.233
R316 VPWR.n287 VPWR.n286 4.1734
R317 VPWR.n370 VPWR.n369 4.09754
R318 VPWR.n150 VPWR 3.44278
R319 VPWR.n334 VPWR.n176 3.07281
R320 VPWR.n90 VPWR.n89 2.63579
R321 VPWR.n63 VPWR.n62 2.63579
R322 VPWR.n126 VPWR.n18 2.63579
R323 VPWR.n368 VPWR.n150 1.94486
R324 VPWR.n282 VPWR.n281 1.25038
R325 VPWR.n371 VPWR.n370 1.04464
R326 VPWR.n277 VPWR.n276 0.897709
R327 VPWR.n367 VPWR.n365 0.877511
R328 VPWR.n218 VPWR.n217 0.861295
R329 VPWR.n369 VPWR.n368 0.848036
R330 VPWR.n286 VPWR.n285 0.838747
R331 VPWR.n284 VPWR.n283 0.83329
R332 VPWR.n285 VPWR.n284 0.810795
R333 VPWR.n362 VPWR.n359 0.698295
R334 VPWR.n276 VPWR.n275 0.574375
R335 VPWR.n365 VPWR.n362 0.53699
R336 VPWR.n219 VPWR.n218 0.507602
R337 VPWR.n335 VPWR.n334 0.491158
R338 VPWR.n370 VPWR.n6 0.456575
R339 VPWR.n220 VPWR.n219 0.391496
R340 VPWR.n179 VPWR.n176 0.380996
R341 VPWR.n221 VPWR.n220 0.325974
R342 VPWR.n275 VPWR.n234 0.323617
R343 VPWR.n287 VPWR.n221 0.320751
R344 VPWR.n180 VPWR.n179 0.263105
R345 VPWR.n181 VPWR.n180 0.23221
R346 VPWR.n291 VPWR.n221 0.198913
R347 VPWR.n292 VPWR.n220 0.195812
R348 VPWR.n182 VPWR.n181 0.193814
R349 VPWR.n293 VPWR.n219 0.192808
R350 VPWR.n294 VPWR.n218 0.189894
R351 VPWR.n183 VPWR.n182 0.183989
R352 VPWR.n359 VPWR.n151 0.169675
R353 VPWR.n336 VPWR.n335 0.168706
R354 VPWR.n332 VPWR.n176 0.162658
R355 VPWR.n184 VPWR.n183 0.157627
R356 VPWR.n82 VPWR 0.156264
R357 VPWR.n358 VPWR.n357 0.154418
R358 VPWR.n296 VPWR.n295 0.154418
R359 VPWR.n310 VPWR.n202 0.153485
R360 VPWR.n185 VPWR.n184 0.148565
R361 VPWR.n254 VPWR.n1 0.147626
R362 VPWR.n86 VPWR.n82 0.144904
R363 VPWR.n331 VPWR.n179 0.143882
R364 VPWR.n330 VPWR.n180 0.142412
R365 VPWR.n328 VPWR.n182 0.140206
R366 VPWR.n329 VPWR.n181 0.140035
R367 VPWR.n326 VPWR.n184 0.139637
R368 VPWR.n327 VPWR.n183 0.139471
R369 VPWR.n272 VPWR.n235 0.137548
R370 VPWR.n324 VPWR.n186 0.137405
R371 VPWR.n325 VPWR.n185 0.137265