* NGSPICE file created from tt_um_oscillating_bones.ext - technology: sky130A

.subckt tt_um_oscillating_bones clk ena rst_n ui_in[0] ui_in[1] ui_in[2] ui_in[3]
+ ui_in[4] ui_in[5] ui_in[6] ui_in[7] uio_in[0] uio_in[1] uio_in[2] uio_in[3] uio_in[4]
+ uio_in[5] uio_in[6] uio_in[7] uio_oe[0] uio_oe[1] uio_oe[2] uio_oe[3] uio_oe[4]
+ uio_oe[5] uio_oe[6] uio_oe[7] uio_out[0] uio_out[1] uio_out[2] uio_out[3] uio_out[4]
+ uio_out[5] uio_out[6] uio_out[7] uo_out[0] uo_out[1] uo_out[2] uo_out[3] uo_out[4]
+ uo_out[5] uo_out[6] uo_out[7] VAPWR VDPWR VGND
X0 ring_0/skullfet_inverter_18.A ring_0/skullfet_inverter_17.A VGND.t20 VGND.t19 sky130_fd_pr__nfet_g5v0d10v5 ad=7.8525 pd=29.65 as=5.1075 ps=11.95 w=4.5 l=0.5
X1 VAPWR.t41 ring_0/skullfet_inverter_14.A ring_0/skullfet_inverter_15.A VAPWR.t40 sky130_fd_pr__pfet_g5v0d10v5 ad=5.3775 pd=12.07 as=7.5825 ps=29.53 w=4.5 l=0.5
X2 VAPWR.t15 ring_0/skullfet_inverter_18.A ring_0/skullfet_inverter_19.A VAPWR.t14 sky130_fd_pr__pfet_g5v0d10v5 ad=5.3775 pd=12.07 as=7.5825 ps=29.53 w=4.5 l=0.5
X3 a_13289_43697# uo_out[2].t2 VDPWR.t59 VDPWR.t58 sky130_fd_pr__pfet_01v8_hvt ad=0.1664 pd=1.8 as=0.0864 ps=0.91 w=0.64 l=0.15
X4 a_16868_43697# a_17160_43997# a_17111_44089# VDPWR.t49 sky130_fd_pr__pfet_01v8_hvt ad=0.0567 pd=0.69 as=0.0882 ps=0.84 w=0.42 l=0.15
X5 a_16596_43697# a_16868_43697# VGND.t63 VGND.t24 sky130_fd_pr__nfet_01v8 ad=0.169 pd=1.82 as=0.08775 ps=0.92 w=0.65 l=0.15
X6 VDPWR.t41 a_12637_43697# freq_divider_0.sky130_fd_sc_hd__dfxbp_1_3.Q_N VDPWR.t40 sky130_fd_pr__pfet_01v8_hvt ad=0.154 pd=1.335 as=0.26 ps=2.52 w=1 l=0.15
X7 VGND.t60 a_14569_43697# freq_divider_0.sky130_fd_sc_hd__dfxbp_1_2.Q_N VGND.t43 sky130_fd_pr__nfet_01v8 ad=0.097 pd=0.975 as=0.169 ps=1.82 w=0.65 l=0.15
X8 a_15221_43697# uo_out[1].t2 VDPWR.t27 VDPWR.t26 sky130_fd_pr__pfet_01v8_hvt ad=0.1664 pd=1.8 as=0.0864 ps=0.91 w=0.64 l=0.15
X9 VDPWR.t65 freq_divider_0.sky130_fd_sc_hd__dfxbp_1_3.Q_N a_13843_43723# VDPWR.t64 sky130_fd_pr__pfet_01v8_hvt ad=0.1092 pd=1.36 as=0.05775 ps=0.695 w=0.42 l=0.15
X10 a_15179_44089# a_14664_43697# VDPWR.t71 VDPWR.t70 sky130_fd_pr__pfet_01v8_hvt ad=0.0882 pd=0.84 as=0.1113 ps=1.37 w=0.42 l=0.15
X11 VGND.t5 ring_0/skullfet_inverter_5.A ring_0/skullfet_inverter_6.A VGND.t4 sky130_fd_pr__nfet_g5v0d10v5 ad=5.1075 pd=11.95 as=7.8525 ps=29.65 w=4.5 l=0.5
X12 a_17360_43697# a_17160_43997# a_17509_43723# VGND.t15 sky130_fd_pr__special_nfet_01v8 ad=0.0621 pd=0.705 as=0.0696 ps=0.765 w=0.36 l=0.15
X13 ring_0/skullfet_inverter_4.A ring_0/skullfet_inverter_3.A VAPWR.t25 VAPWR.t24 sky130_fd_pr__pfet_g5v0d10v5 ad=7.5825 pd=29.53 as=5.3775 ps=12.07 w=4.5 l=0.5
X14 ring_0/skullfet_inverter_3.A ring_0/skullfet_inverter_2.A VAPWR.t3 VAPWR.t2 sky130_fd_pr__pfet_g5v0d10v5 ad=7.5825 pd=29.53 as=5.3775 ps=12.07 w=4.5 l=0.5
X15 a_15577_43723# a_15357_43723# VGND.t1 VGND.t0 sky130_fd_pr__nfet_01v8 ad=0.0696 pd=0.765 as=0.12095 ps=1.085 w=0.42 l=0.15
X16 ring_0/skullfet_inverter_2.A ring_0/skullfet_inverter_1.A VAPWR.t5 VAPWR.t4 sky130_fd_pr__pfet_g5v0d10v5 ad=7.5825 pd=29.53 as=5.3775 ps=12.07 w=4.5 l=0.5
X17 VGND.t86 a_14664_43697# uo_out[2].t0 VGND.t43 sky130_fd_pr__nfet_01v8 ad=0.08775 pd=0.92 as=0.169 ps=1.82 w=0.65 l=0.15
X18 VDPWR.t25 a_13289_43697# a_13296_43997# VDPWR.t24 sky130_fd_pr__pfet_01v8_hvt ad=0.0864 pd=0.91 as=0.1664 ps=1.8 w=0.64 l=0.15
X19 VGND.t80 a_15221_43697# a_15228_43997# VGND.t0 sky130_fd_pr__nfet_01v8 ad=0.0567 pd=0.69 as=0.1092 ps=1.36 w=0.42 l=0.15
X20 ring_0/skullfet_inverter_20.A ring_0/skullfet_inverter_19.A VAPWR.t11 VAPWR.t10 sky130_fd_pr__pfet_g5v0d10v5 ad=7.5825 pd=29.53 as=5.3775 ps=12.07 w=4.5 l=0.5
X21 a_13843_43723# a_13296_43997# a_13496_43697# VDPWR.t9 sky130_fd_pr__pfet_01v8_hvt ad=0.05775 pd=0.695 as=0.06825 ps=0.745 w=0.42 l=0.15
X22 a_16501_43697# a_16596_43697# VGND.t26 VGND.t0 sky130_fd_pr__nfet_01v8 ad=0.1092 pd=1.36 as=0.097 ps=0.975 w=0.42 l=0.15
X23 a_12637_43697# a_12732_43697# VDPWR.t39 VDPWR.t38 sky130_fd_pr__pfet_01v8_hvt ad=0.1664 pd=1.8 as=0.154 ps=1.335 w=0.64 l=0.15
X24 a_17289_43723# a_17153_43697# a_16868_43697# VDPWR.t13 sky130_fd_pr__pfet_01v8_hvt ad=0.1095 pd=1.075 as=0.0567 ps=0.69 w=0.42 l=0.15
X25 a_13224_43723# a_12732_43697# VGND.t55 VGND.t54 sky130_fd_pr__nfet_01v8 ad=0.066 pd=0.745 as=0.1092 ps=1.36 w=0.42 l=0.15
X26 VGND.t62 ring_0/skullfet_inverter_20.A ring_0/skullfet_inverter_20.Y VGND.t61 sky130_fd_pr__nfet_g5v0d10v5 ad=5.1075 pd=11.95 as=7.8525 ps=29.65 w=4.5 l=0.5
X27 VGND.t48 ring_0/skullfet_inverter_3.A ring_0/skullfet_inverter_4.A VGND.t47 sky130_fd_pr__nfet_g5v0d10v5 ad=5.1075 pd=11.95 as=7.8525 ps=29.65 w=4.5 l=0.5
X28 VDPWR.t69 a_14664_43697# uo_out[2].t1 VDPWR.t68 sky130_fd_pr__pfet_01v8_hvt ad=0.135 pd=1.27 as=0.26 ps=2.52 w=1 l=0.15
X29 ring_0/skullfet_inverter_13.A ring_0/skullfet_inverter_12.A VAPWR.t13 VAPWR.t12 sky130_fd_pr__pfet_g5v0d10v5 ad=7.5825 pd=29.53 as=5.3775 ps=12.07 w=4.5 l=0.5
X30 ring_0/skullfet_inverter_17.A ring_0/skullfet_inverter_16.A VGND.t35 VGND.t34 sky130_fd_pr__nfet_g5v0d10v5 ad=7.8525 pd=29.65 as=5.1075 ps=11.95 w=4.5 l=0.5
X31 a_15156_43723# a_14664_43697# VGND.t85 VGND.t0 sky130_fd_pr__nfet_01v8 ad=0.066 pd=0.745 as=0.1092 ps=1.36 w=0.42 l=0.15
X32 a_17707_43723# a_17153_43697# a_17360_43697# VGND.t15 sky130_fd_pr__special_nfet_01v8 ad=0.0813 pd=0.83 as=0.0621 ps=0.705 w=0.36 l=0.15
X33 a_14936_43697# a_15228_43997# a_15179_44089# VDPWR.t5 sky130_fd_pr__pfet_01v8_hvt ad=0.0567 pd=0.69 as=0.0882 ps=0.84 w=0.42 l=0.15
X34 a_13289_43697# uo_out[2].t3 VGND.t31 VGND.t0 sky130_fd_pr__nfet_01v8 ad=0.1092 pd=1.36 as=0.0567 ps=0.69 w=0.42 l=0.15
X35 VGND.t79 freq_divider_0.sky130_fd_sc_hd__dfxbp_1_1.Q_N a_17707_43723# VGND.t9 sky130_fd_pr__nfet_01v8 ad=0.1092 pd=1.36 as=0.0813 ps=0.83 w=0.42 l=0.15
X36 a_14664_43697# a_14936_43697# VGND.t44 VGND.t43 sky130_fd_pr__nfet_01v8 ad=0.169 pd=1.82 as=0.08775 ps=0.92 w=0.65 l=0.15
X37 VGND.t57 a_12637_43697# freq_divider_0.sky130_fd_sc_hd__dfxbp_1_3.Q_N VGND.t56 sky130_fd_pr__nfet_01v8 ad=0.097 pd=0.975 as=0.169 ps=1.82 w=0.65 l=0.15
X38 VGND.t3 a_13496_43697# a_13425_43723# VGND.t2 sky130_fd_pr__nfet_01v8 ad=0.12095 pd=1.085 as=0.0989 ps=0.995 w=0.64 l=0.15
X39 VAPWR.t17 ring_0/skullfet_inverter_15.A ring_0/skullfet_inverter_16.A VAPWR.t16 sky130_fd_pr__pfet_g5v0d10v5 ad=5.3775 pd=12.07 as=7.5825 ps=29.53 w=4.5 l=0.5
X40 uo_out[0].t1 skullfet_level_shifter.A VGND.t69 VGND.t68 sky130_fd_pr__nfet_g5v0d10v5 ad=7.8525 pd=29.65 as=5.1075 ps=11.95 w=4.5 l=0.5
X41 a_13247_44089# a_12732_43697# VDPWR.t37 VDPWR.t36 sky130_fd_pr__pfet_01v8_hvt ad=0.0882 pd=0.84 as=0.1113 ps=1.37 w=0.42 l=0.15
X42 a_15221_43697# uo_out[1].t3 VGND.t16 VGND.t0 sky130_fd_pr__nfet_01v8 ad=0.1092 pd=1.36 as=0.0567 ps=0.69 w=0.42 l=0.15
X43 a_15428_43697# a_15228_43997# a_15577_43723# VGND.t8 sky130_fd_pr__special_nfet_01v8 ad=0.0621 pd=0.705 as=0.0696 ps=0.765 w=0.36 l=0.15
X44 VGND.t28 ring_0/skullfet_inverter_12.A ring_0/skullfet_inverter_13.A VGND.t27 sky130_fd_pr__nfet_g5v0d10v5 ad=5.1075 pd=11.95 as=7.8525 ps=29.65 w=4.5 l=0.5
X45 a_13645_43723# a_13425_43723# VGND.t42 VGND.t0 sky130_fd_pr__nfet_01v8 ad=0.0696 pd=0.765 as=0.12095 ps=1.085 w=0.42 l=0.15
X46 VGND.t39 a_15428_43697# a_15357_43723# VGND.t38 sky130_fd_pr__nfet_01v8 ad=0.12095 pd=1.085 as=0.0989 ps=0.995 w=0.64 l=0.15
X47 VGND.t53 a_12732_43697# uo_out[3].t1 VGND.t52 sky130_fd_pr__nfet_01v8 ad=0.08775 pd=0.92 as=0.169 ps=1.82 w=0.65 l=0.15
X48 VDPWR.t43 a_17360_43697# a_17289_43723# VDPWR.t42 sky130_fd_pr__pfet_01v8_hvt ad=0.178875 pd=1.26 as=0.1095 ps=1.075 w=0.75 l=0.15
X49 a_16868_43697# a_17153_43697# a_17088_43723# VGND.t15 sky130_fd_pr__special_nfet_01v8 ad=0.0684 pd=0.74 as=0.066 ps=0.745 w=0.36 l=0.15
X50 a_14664_43697# a_14936_43697# VDPWR.t31 VDPWR.t30 sky130_fd_pr__pfet_01v8_hvt ad=0.27 pd=2.54 as=0.135 ps=1.27 w=1 l=0.15
X51 VAPWR.t9 ring_0/skullfet_inverter_17.A ring_0/skullfet_inverter_18.A VAPWR.t8 sky130_fd_pr__pfet_g5v0d10v5 ad=5.3775 pd=12.07 as=7.5825 ps=29.53 w=4.5 l=0.5
X52 VGND.t41 a_13289_43697# a_13296_43997# VGND.t0 sky130_fd_pr__nfet_01v8 ad=0.0567 pd=0.69 as=0.1092 ps=1.36 w=0.42 l=0.15
X53 ring_0/skullfet_inverter_9.A ring_0/skullfet_inverter_8.A VAPWR.t33 VAPWR.t32 sky130_fd_pr__pfet_g5v0d10v5 ad=7.5825 pd=29.53 as=5.3775 ps=12.07 w=4.5 l=0.5
X54 ring_0/skullfet_inverter_1.A ring_0/skullfet_inverter_20.Y VAPWR.t35 VAPWR.t34 sky130_fd_pr__pfet_g5v0d10v5 ad=7.5825 pd=29.53 as=5.3775 ps=12.07 w=4.5 l=0.5
X55 a_14569_43697# a_14664_43697# VGND.t84 VGND.t0 sky130_fd_pr__nfet_01v8 ad=0.1092 pd=1.36 as=0.097 ps=0.975 w=0.42 l=0.15
X56 a_15604_44089# a_15357_43723# VDPWR.t1 VDPWR.t0 sky130_fd_pr__pfet_01v8_hvt ad=0.07665 pd=0.785 as=0.178875 ps=1.26 w=0.42 l=0.15
X57 a_15357_43723# a_15221_43697# a_14936_43697# VDPWR.t63 sky130_fd_pr__pfet_01v8_hvt ad=0.1095 pd=1.075 as=0.0567 ps=0.69 w=0.42 l=0.15
X58 a_15428_43697# a_15221_43697# a_15604_44089# VDPWR.t62 sky130_fd_pr__pfet_01v8_hvt ad=0.06825 pd=0.745 as=0.07665 ps=0.785 w=0.42 l=0.15
X59 a_12732_43697# a_13004_43697# VGND.t73 VGND.t72 sky130_fd_pr__nfet_01v8 ad=0.169 pd=1.82 as=0.08775 ps=0.92 w=0.65 l=0.15
X60 VGND.t12 ring_0/skullfet_inverter_1.A ring_0/skullfet_inverter_2.A VGND.t11 sky130_fd_pr__nfet_g5v0d10v5 ad=5.1075 pd=11.95 as=7.8525 ps=29.65 w=4.5 l=0.5
X61 VDPWR.t57 freq_divider_0.sky130_fd_sc_hd__dfxbp_1_1.Q_N a_17707_43723# VDPWR.t56 sky130_fd_pr__pfet_01v8_hvt ad=0.1092 pd=1.36 as=0.05775 ps=0.695 w=0.42 l=0.15
X62 VDPWR.t35 a_12732_43697# uo_out[3].t0 VDPWR.t34 sky130_fd_pr__pfet_01v8_hvt ad=0.135 pd=1.27 as=0.26 ps=2.52 w=1 l=0.15
X63 a_17289_43723# a_17160_43997# a_16868_43697# VGND.t15 sky130_fd_pr__special_nfet_01v8 ad=0.0989 pd=0.995 as=0.0684 ps=0.74 w=0.36 l=0.15
X64 a_17153_43697# uo_out[0].t2 VDPWR.t73 VDPWR.t72 sky130_fd_pr__pfet_01v8_hvt ad=0.1664 pd=1.8 as=0.0864 ps=0.91 w=0.64 l=0.15
X65 a_17536_44089# a_17289_43723# VDPWR.t7 VDPWR.t6 sky130_fd_pr__pfet_01v8_hvt ad=0.07665 pd=0.785 as=0.178875 ps=1.26 w=0.42 l=0.15
X66 VGND.t22 ring_0/skullfet_inverter_19.A ring_0/skullfet_inverter_20.A VGND.t21 sky130_fd_pr__nfet_g5v0d10v5 ad=5.1075 pd=11.95 as=7.8525 ps=29.65 w=4.5 l=0.5
X67 a_17360_43697# a_17153_43697# a_17536_44089# VDPWR.t12 sky130_fd_pr__pfet_01v8_hvt ad=0.06825 pd=0.745 as=0.07665 ps=0.785 w=0.42 l=0.15
X68 a_17111_44089# a_16596_43697# VDPWR.t19 VDPWR.t18 sky130_fd_pr__pfet_01v8_hvt ad=0.0882 pd=0.84 as=0.1113 ps=1.37 w=0.42 l=0.15
X69 ring_0/skullfet_inverter_20.Y ring_0/skullfet_inverter_20.A VAPWR.t27 VAPWR.t26 sky130_fd_pr__pfet_g5v0d10v5 ad=7.5825 pd=29.53 as=5.3775 ps=12.07 w=4.5 l=0.5
X70 ring_0/skullfet_inverter_10.A ring_0/skullfet_inverter_9.A VAPWR.t37 VAPWR.t36 sky130_fd_pr__pfet_g5v0d10v5 ad=7.5825 pd=29.53 as=5.3775 ps=12.07 w=4.5 l=0.5
X71 ring_0/skullfet_inverter_19.A ring_0/skullfet_inverter_18.A VGND.t30 VGND.t29 sky130_fd_pr__nfet_g5v0d10v5 ad=7.8525 pd=29.65 as=5.1075 ps=11.95 w=4.5 l=0.5
X72 ring_0/skullfet_inverter_12.A ring_0/skullfet_inverter_11.A VAPWR.t29 VAPWR.t28 sky130_fd_pr__pfet_g5v0d10v5 ad=7.5825 pd=29.53 as=5.3775 ps=12.07 w=4.5 l=0.5
X73 a_15775_43723# a_15221_43697# a_15428_43697# VGND.t8 sky130_fd_pr__special_nfet_01v8 ad=0.0813 pd=0.83 as=0.0621 ps=0.705 w=0.36 l=0.15
X74 a_13004_43697# a_13296_43997# a_13247_44089# VDPWR.t8 sky130_fd_pr__pfet_01v8_hvt ad=0.0567 pd=0.69 as=0.0882 ps=0.84 w=0.42 l=0.15
X75 VDPWR.t33 a_16501_43697# freq_divider_0.sky130_fd_sc_hd__dfxbp_1_1.Q_N VDPWR.t32 sky130_fd_pr__pfet_01v8_hvt ad=0.154 pd=1.335 as=0.26 ps=2.52 w=1 l=0.15
X76 VGND.t71 ring_0/skullfet_inverter_8.A ring_0/skullfet_inverter_9.A VGND.t70 sky130_fd_pr__nfet_g5v0d10v5 ad=5.1075 pd=11.95 as=7.8525 ps=29.65 w=4.5 l=0.5
X77 a_12732_43697# a_13004_43697# VDPWR.t53 VDPWR.t52 sky130_fd_pr__pfet_01v8_hvt ad=0.27 pd=2.54 as=0.135 ps=1.27 w=1 l=0.15
X78 VGND.t75 ring_0/skullfet_inverter_20.Y ring_0/skullfet_inverter_1.A VGND.t74 sky130_fd_pr__nfet_g5v0d10v5 ad=5.1075 pd=11.95 as=7.8525 ps=29.65 w=4.5 l=0.5
X79 VGND.t76 freq_divider_0.sky130_fd_sc_hd__dfxbp_1_2.Q_N a_15775_43723# VGND.t0 sky130_fd_pr__nfet_01v8 ad=0.1092 pd=1.36 as=0.0813 ps=0.83 w=0.42 l=0.15
X80 a_16501_43697# a_16596_43697# VDPWR.t17 VDPWR.t16 sky130_fd_pr__pfet_01v8_hvt ad=0.1664 pd=1.8 as=0.154 ps=1.335 w=0.64 l=0.15
X81 a_13496_43697# a_13296_43997# a_13645_43723# VGND.t8 sky130_fd_pr__special_nfet_01v8 ad=0.0621 pd=0.705 as=0.0696 ps=0.765 w=0.36 l=0.15
X82 ring_0/skullfet_inverter_5.A ring_0/skullfet_inverter_4.A VAPWR.t23 VAPWR.t22 sky130_fd_pr__pfet_g5v0d10v5 ad=7.5825 pd=29.53 as=5.3775 ps=12.07 w=4.5 l=0.5
X83 ring_0/skullfet_inverter_8.A skullfet_level_shifter.A VAPWR.t31 VAPWR.t30 sky130_fd_pr__pfet_g5v0d10v5 ad=7.5825 pd=29.53 as=5.3775 ps=12.07 w=4.5 l=0.5
X84 VGND.t78 ring_0/skullfet_inverter_9.A ring_0/skullfet_inverter_10.A VGND.t77 sky130_fd_pr__nfet_g5v0d10v5 ad=5.1075 pd=11.95 as=7.8525 ps=29.65 w=4.5 l=0.5
X85 VDPWR.t21 a_15428_43697# a_15357_43723# VDPWR.t20 sky130_fd_pr__pfet_01v8_hvt ad=0.178875 pd=1.26 as=0.1095 ps=1.075 w=0.75 l=0.15
X86 ring_0/skullfet_inverter_14.A ring_0/skullfet_inverter_13.A VGND.t37 VGND.t36 sky130_fd_pr__nfet_g5v0d10v5 ad=7.8525 pd=29.65 as=5.1075 ps=11.95 w=4.5 l=0.5
X87 VDPWR.t11 a_17153_43697# a_17160_43997# VDPWR.t10 sky130_fd_pr__pfet_01v8_hvt ad=0.0864 pd=0.91 as=0.1664 ps=1.8 w=0.64 l=0.15
X88 VGND.t65 ring_0/skullfet_inverter_11.A ring_0/skullfet_inverter_12.A VGND.t64 sky130_fd_pr__nfet_g5v0d10v5 ad=5.1075 pd=11.95 as=7.8525 ps=29.65 w=4.5 l=0.5
X89 a_14936_43697# a_15221_43697# a_15156_43723# VGND.t8 sky130_fd_pr__special_nfet_01v8 ad=0.0684 pd=0.74 as=0.066 ps=0.745 w=0.36 l=0.15
X90 VDPWR.t51 skullfet_level_shifter.A uo_out[0].t0 VDPWR.t50 sky130_fd_pr__pfet_g5v0d10v5 ad=5.3775 pd=12.07 as=7.5825 ps=29.53 w=4.5 l=0.5
X91 VGND.t7 ring_0/skullfet_inverter_2.A ring_0/skullfet_inverter_3.A VGND.t6 sky130_fd_pr__nfet_g5v0d10v5 ad=5.1075 pd=11.95 as=7.8525 ps=29.65 w=4.5 l=0.5
X92 a_12637_43697# a_12732_43697# VGND.t51 VGND.t50 sky130_fd_pr__nfet_01v8 ad=0.1092 pd=1.36 as=0.097 ps=0.975 w=0.42 l=0.15
X93 VGND.t83 ring_0/skullfet_inverter_6.A skullfet_level_shifter.A VGND.t82 sky130_fd_pr__nfet_g5v0d10v5 ad=5.1075 pd=11.95 as=7.8525 ps=29.65 w=4.5 l=0.5
X94 a_13672_44089# a_13425_43723# VDPWR.t29 VDPWR.t28 sky130_fd_pr__pfet_01v8_hvt ad=0.07665 pd=0.785 as=0.178875 ps=1.26 w=0.42 l=0.15
X95 a_13425_43723# a_13296_43997# a_13004_43697# VGND.t13 sky130_fd_pr__special_nfet_01v8 ad=0.0989 pd=0.995 as=0.0684 ps=0.74 w=0.36 l=0.15
X96 VGND.t18 ring_0/skullfet_inverter_10.A ring_0/skullfet_inverter_11.A VGND.t17 sky130_fd_pr__nfet_g5v0d10v5 ad=5.1075 pd=11.95 as=7.8525 ps=29.65 w=4.5 l=0.5
X97 a_13425_43723# a_13289_43697# a_13004_43697# VDPWR.t23 sky130_fd_pr__pfet_01v8_hvt ad=0.1095 pd=1.075 as=0.0567 ps=0.69 w=0.42 l=0.15
X98 a_13496_43697# a_13289_43697# a_13672_44089# VDPWR.t22 sky130_fd_pr__pfet_01v8_hvt ad=0.06825 pd=0.745 as=0.07665 ps=0.785 w=0.42 l=0.15
X99 VDPWR.t45 a_14569_43697# freq_divider_0.sky130_fd_sc_hd__dfxbp_1_2.Q_N VDPWR.t44 sky130_fd_pr__pfet_01v8_hvt ad=0.154 pd=1.335 as=0.26 ps=2.52 w=1 l=0.15
X100 ring_0/skullfet_inverter_16.A ring_0/skullfet_inverter_15.A VGND.t33 VGND.t32 sky130_fd_pr__nfet_g5v0d10v5 ad=7.8525 pd=29.65 as=5.1075 ps=11.95 w=4.5 l=0.5
X101 VGND.t46 ring_0/skullfet_inverter_4.A ring_0/skullfet_inverter_5.A VGND.t45 sky130_fd_pr__nfet_g5v0d10v5 ad=5.1075 pd=11.95 as=7.8525 ps=29.65 w=4.5 l=0.5
X102 VDPWR.t55 freq_divider_0.sky130_fd_sc_hd__dfxbp_1_2.Q_N a_15775_43723# VDPWR.t54 sky130_fd_pr__pfet_01v8_hvt ad=0.1092 pd=1.36 as=0.05775 ps=0.695 w=0.42 l=0.15
X103 VGND.t67 skullfet_level_shifter.A ring_0/skullfet_inverter_8.A VGND.t66 sky130_fd_pr__nfet_g5v0d10v5 ad=5.1075 pd=11.95 as=7.8525 ps=29.65 w=4.5 l=0.5
X104 a_15357_43723# a_15228_43997# a_14936_43697# VGND.t8 sky130_fd_pr__special_nfet_01v8 ad=0.0989 pd=0.995 as=0.0684 ps=0.74 w=0.36 l=0.15
X105 a_17153_43697# uo_out[0].t3 VGND.t87 VGND.t9 sky130_fd_pr__nfet_01v8 ad=0.1092 pd=1.36 as=0.0567 ps=0.69 w=0.42 l=0.15
X106 VAPWR.t21 ring_0/skullfet_inverter_13.A ring_0/skullfet_inverter_14.A VAPWR.t20 sky130_fd_pr__pfet_g5v0d10v5 ad=5.3775 pd=12.07 as=7.5825 ps=29.53 w=4.5 l=0.5
X107 a_17509_43723# a_17289_43723# VGND.t10 VGND.t9 sky130_fd_pr__nfet_01v8 ad=0.0696 pd=0.765 as=0.12095 ps=1.085 w=0.42 l=0.15
X108 VGND.t25 a_16596_43697# uo_out[1].t1 VGND.t24 sky130_fd_pr__nfet_01v8 ad=0.08775 pd=0.92 as=0.169 ps=1.82 w=0.65 l=0.15
X109 a_13843_43723# a_13289_43697# a_13496_43697# VGND.t8 sky130_fd_pr__special_nfet_01v8 ad=0.0813 pd=0.83 as=0.0621 ps=0.705 w=0.36 l=0.15
X110 ring_0/skullfet_inverter_15.A ring_0/skullfet_inverter_14.A VGND.t89 VGND.t88 sky130_fd_pr__nfet_g5v0d10v5 ad=7.8525 pd=29.65 as=5.1075 ps=11.95 w=4.5 l=0.5
X111 VGND.t59 a_17360_43697# a_17289_43723# VGND.t58 sky130_fd_pr__nfet_01v8 ad=0.12095 pd=1.085 as=0.0989 ps=0.995 w=0.64 l=0.15
X112 VGND.t49 a_16501_43697# freq_divider_0.sky130_fd_sc_hd__dfxbp_1_1.Q_N VGND.t43 sky130_fd_pr__nfet_01v8 ad=0.097 pd=0.975 as=0.169 ps=1.82 w=0.65 l=0.15
X113 VDPWR.t61 a_15221_43697# a_15228_43997# VDPWR.t60 sky130_fd_pr__pfet_01v8_hvt ad=0.0864 pd=0.91 as=0.1664 ps=1.8 w=0.64 l=0.15
X114 VGND.t81 freq_divider_0.sky130_fd_sc_hd__dfxbp_1_3.Q_N a_13843_43723# VGND.t0 sky130_fd_pr__nfet_01v8 ad=0.1092 pd=1.36 as=0.0813 ps=0.83 w=0.42 l=0.15
X115 VAPWR.t19 ring_0/skullfet_inverter_16.A ring_0/skullfet_inverter_17.A VAPWR.t18 sky130_fd_pr__pfet_g5v0d10v5 ad=5.3775 pd=12.07 as=7.5825 ps=29.53 w=4.5 l=0.5
X116 a_15775_43723# a_15228_43997# a_15428_43697# VDPWR.t4 sky130_fd_pr__pfet_01v8_hvt ad=0.05775 pd=0.695 as=0.06825 ps=0.745 w=0.42 l=0.15
X117 a_13004_43697# a_13289_43697# a_13224_43723# VGND.t40 sky130_fd_pr__special_nfet_01v8 ad=0.0684 pd=0.74 as=0.066 ps=0.745 w=0.36 l=0.15
X118 skullfet_level_shifter.A ring_0/skullfet_inverter_6.A VAPWR.t39 VAPWR.t38 sky130_fd_pr__pfet_g5v0d10v5 ad=7.5825 pd=29.53 as=5.3775 ps=12.07 w=4.5 l=0.5
X119 a_16596_43697# a_16868_43697# VDPWR.t47 VDPWR.t46 sky130_fd_pr__pfet_01v8_hvt ad=0.27 pd=2.54 as=0.135 ps=1.27 w=1 l=0.15
X120 a_14569_43697# a_14664_43697# VDPWR.t67 VDPWR.t66 sky130_fd_pr__pfet_01v8_hvt ad=0.1664 pd=1.8 as=0.154 ps=1.335 w=0.64 l=0.15
X121 ring_0/skullfet_inverter_11.A ring_0/skullfet_inverter_10.A VAPWR.t7 VAPWR.t6 sky130_fd_pr__pfet_g5v0d10v5 ad=7.5825 pd=29.53 as=5.3775 ps=12.07 w=4.5 l=0.5
X122 ring_0/skullfet_inverter_6.A ring_0/skullfet_inverter_5.A VAPWR.t1 VAPWR.t0 sky130_fd_pr__pfet_g5v0d10v5 ad=7.5825 pd=29.53 as=5.3775 ps=12.07 w=4.5 l=0.5
X123 a_17707_43723# a_17160_43997# a_17360_43697# VDPWR.t48 sky130_fd_pr__pfet_01v8_hvt ad=0.05775 pd=0.695 as=0.06825 ps=0.745 w=0.42 l=0.15
X124 VDPWR.t15 a_16596_43697# uo_out[1].t0 VDPWR.t14 sky130_fd_pr__pfet_01v8_hvt ad=0.135 pd=1.27 as=0.26 ps=2.52 w=1 l=0.15
X125 VDPWR.t3 a_13496_43697# a_13425_43723# VDPWR.t2 sky130_fd_pr__pfet_01v8_hvt ad=0.178875 pd=1.26 as=0.1095 ps=1.075 w=0.75 l=0.15
X126 VGND.t14 a_17153_43697# a_17160_43997# VGND.t9 sky130_fd_pr__nfet_01v8 ad=0.0567 pd=0.69 as=0.1092 ps=1.36 w=0.42 l=0.15
X127 a_17088_43723# a_16596_43697# VGND.t23 VGND.t9 sky130_fd_pr__nfet_01v8 ad=0.066 pd=0.745 as=0.1092 ps=1.36 w=0.42 l=0.15
R0 VGND.n425 VGND.n424 570379
R1 VGND.n130 VGND.n129 570263
R2 VGND.n129 VGND.n3 194461
R3 VGND.n425 VGND.n24 194343
R4 VGND.n130 VGND.n78 192789
R5 VGND.n424 VGND.n423 192674
R6 VGND.n158 VGND.n156 57198.5
R7 VGND.n132 VGND.n131 54022.2
R8 VGND.n26 VGND.n25 54013.8
R9 VGND.n472 VGND.n4 36049.1
R10 VGND.n423 VGND.t82 32282.1
R11 VGND.n102 VGND.n78 30458.6
R12 VGND.n77 VGND.n3 30455.9
R13 VGND.n325 VGND.n24 30451.1
R14 VGND.n423 VGND.n26 30163.7
R15 VGND.n99 VGND.n78 30163.7
R16 VGND.n137 VGND.n75 27183.9
R17 VGND.t11 VGND.n152 22572.7
R18 VGND.n152 VGND.n151 19011.9
R19 VGND.n322 VGND.t15 16545.7
R20 VGND.t56 VGND.n158 14642.2
R21 VGND.n136 VGND.n132 14211.6
R22 VGND.n334 VGND.n156 13525.9
R23 VGND.n424 VGND.n25 13282
R24 VGND.n131 VGND.n130 13281.9
R25 VGND.n135 VGND.n74 12582
R26 VGND.n472 VGND.n471 11835.1
R27 VGND.n322 VGND.n321 11079.9
R28 VGND.n138 VGND.n74 8411.7
R29 VGND.n138 VGND.n137 7811.4
R30 VGND.n325 VGND.n25 6174.02
R31 VGND.n131 VGND.n77 6169.66
R32 VGND.n322 VGND.n318 5759.37
R33 VGND.n471 VGND.t27 5611.54
R34 VGND.n140 VGND.n68 5579.62
R35 VGND.n132 VGND.n74 5351.68
R36 VGND.n135 VGND.n134 4937.85
R37 VGND.n140 VGND.n139 4845.05
R38 VGND.n69 VGND.n7 4441.64
R39 VGND.n334 VGND.n325 4412.94
R40 VGND.n334 VGND.n157 4224.13
R41 VGND.n136 VGND.n135 3889.67
R42 VGND.t68 VGND.n27 3753.63
R43 VGND.n128 VGND.n3 3692.64
R44 VGND.n77 VGND.n75 3402.31
R45 VGND.n471 VGND.n470 3172.32
R46 VGND.n469 VGND.t17 2863.06
R47 VGND.n422 VGND.n421 2777.19
R48 VGND.n422 VGND.n27 2407.29
R49 VGND.n322 VGND 2376.85
R50 VGND.n426 VGND.n24 2322.17
R51 VGND.t64 VGND.n8 2286.05
R52 VGND.t36 VGND.n472 2076.87
R53 VGND.n71 VGND.n70 2060.84
R54 VGND.n333 VGND.n331 1852.32
R55 VGND.n334 VGND.n324 1851.9
R56 VGND.n7 VGND.n6 1798.88
R57 VGND.n322 VGND.n27 1764.6
R58 VGND.n470 VGND.n7 1655.02
R59 VGND.n332 VGND.n9 1554.7
R60 VGND.n139 VGND.n138 1540.61
R61 VGND.n134 VGND.t29 1523.34
R62 VGND.n151 VGND.t21 1449.81
R63 VGND.n155 VGND.n154 1403.85
R64 VGND.n72 VGND.n71 1385.1
R65 VGND.n321 VGND.t4 1309.34
R66 VGND.n139 VGND.t21 1230.65
R67 VGND.n137 VGND.n136 1226.09
R68 VGND.t74 VGND.n68 1163.46
R69 VGND.t29 VGND.n132 1127.76
R70 VGND.n129 VGND.t88 1089.82
R71 VGND.t66 VGND.n425 1089.82
R72 VGND.n132 VGND.n76 954.316
R73 VGND.n340 VGND.n26 938.943
R74 VGND.n6 VGND.t27 898.419
R75 VGND.t54 VGND.t72 809.293
R76 VGND.t32 VGND.n3 807.455
R77 VGND.t52 VGND.t50 800.774
R78 VGND.n102 VGND.t34 771.376
R79 VGND.n157 VGND.n26 769.477
R80 VGND.n273 VGND.n24 722.872
R81 VGND.n155 VGND.n68 712.85
R82 VGND.n99 VGND.t19 711.236
R83 VGND.t6 VGND.n155 710.678
R84 VGND.t45 VGND.n26 710.202
R85 VGND.n333 VGND.n332 641.15
R86 VGND.n158 VGND.n24 604.66
R87 VGND.n154 VGND.t11 599.504
R88 VGND.n317 VGND.n159 595.942
R89 VGND.n317 VGND.n316 595.942
R90 VGND.n328 VGND.n327 585
R91 VGND.n330 VGND.n329 585
R92 VGND.n466 VGND.n465 585
R93 VGND.n469 VGND.n468 585
R94 VGND.n6 VGND.n5 585
R95 VGND.n474 VGND.n473 585
R96 VGND.n128 VGND.n127 585
R97 VGND.n101 VGND.n100 585
R98 VGND.n96 VGND.n76 585
R99 VGND.n104 VGND.n103 585
R100 VGND.n142 VGND.n141 585
R101 VGND.n321 VGND.n320 585
R102 VGND.n427 VGND.n426 585
R103 VGND.n274 VGND.n273 585
R104 VGND.n324 VGND.n323 585
R105 VGND.n336 VGND.n335 585
R106 VGND.n154 VGND.n153 585
R107 VGND.n145 VGND.n144 585
R108 VGND.n151 VGND.n150 585
R109 VGND.n134 VGND.n133 585
R110 VGND.n103 VGND.n102 580.986
R111 VGND.n27 VGND.n24 561.288
R112 VGND.n71 VGND.n7 558.698
R113 VGND.n144 VGND.t74 546.268
R114 VGND.n101 VGND.n99 541.24
R115 VGND.n273 VGND.t68 459.25
R116 VGND.t13 VGND.t40 451.5
R117 VGND.n152 VGND.n69 435.567
R118 VGND.n152 VGND.t61 433.632
R119 VGND.t2 VGND.t13 430.204
R120 VGND.t82 VGND.n422 424.454
R121 VGND.n152 VGND.n8 416.322
R122 VGND.n70 VGND.n69 416.322
R123 VGND.t40 VGND.t54 404.647
R124 VGND.t50 VGND.t56 404.647
R125 VGND.n318 VGND.t2 370.572
R126 VGND.t72 VGND.t52 357.793
R127 VGND.n334 VGND.n333 343.485
R128 VGND.n318 VGND 343.437
R129 VGND.t64 VGND.n469 340.748
R130 VGND.n157 VGND.t47 338.3
R131 VGND.n142 VGND.t61 332.805
R132 VGND.t21 VGND.n70 330.817
R133 VGND.n331 VGND.n328 308.387
R134 VGND.t88 VGND.n128 304.548
R135 VGND.n426 VGND.t66 304.548
R136 VGND.n332 VGND.n8 294.779
R137 VGND.n323 VGND.t46 282.13
R138 VGND.n336 VGND.t7 282.13
R139 VGND.n145 VGND.t75 282.13
R140 VGND.n427 VGND.t67 282.13
R141 VGND.n329 VGND.t78 282.13
R142 VGND.n468 VGND.t65 282.13
R143 VGND.n327 VGND.t71 282.13
R144 VGND.n340 VGND.t48 282.13
R145 VGND.n320 VGND.t5 282.13
R146 VGND.n421 VGND.t83 282.13
R147 VGND.n274 VGND.t69 281.841
R148 VGND.n153 VGND.t12 281.839
R149 VGND.n150 VGND.t22 281.839
R150 VGND.n104 VGND.t33 281.839
R151 VGND.n465 VGND.t18 281.839
R152 VGND.n5 VGND.t28 281.839
R153 VGND.n474 VGND.t37 281.839
R154 VGND.n127 VGND.t89 281.839
R155 VGND.n96 VGND.t20 281.839
R156 VGND.n100 VGND.t35 281.839
R157 VGND.n133 VGND.t30 281.839
R158 VGND.n141 VGND.t62 281.839
R159 VGND.n144 VGND.n143 259.74
R160 VGND.n238 VGND.t85 251
R161 VGND.n205 VGND.t23 251
R162 VGND.n296 VGND.t55 251
R163 VGND.n225 VGND.t76 243.028
R164 VGND.n192 VGND.t79 243.028
R165 VGND.n309 VGND.t81 243.028
R166 VGND.n334 VGND.n322 222.743
R167 VGND.n143 VGND.n140 221.165
R168 VGND.n240 VGND.n165 218.506
R169 VGND.n179 VGND.n178 218.506
R170 VGND.n261 VGND.n260 218.506
R171 VGND.n246 VGND.n162 200.201
R172 VGND.n176 VGND.n175 200.201
R173 VGND.n264 VGND.n263 200.201
R174 VGND.n174 VGND.n173 199.739
R175 VGND.n188 VGND.n187 199.739
R176 VGND.n252 VGND.n251 199.739
R177 VGND.n231 VGND.n169 199.53
R178 VGND.n198 VGND.n183 199.53
R179 VGND.n303 VGND.n256 199.53
R180 VGND.n75 VGND.n4 194.254
R181 VGND.t34 VGND.n101 194.014
R182 VGND.n324 VGND.t45 192.522
R183 VGND.n103 VGND.t32 188.929
R184 VGND.t19 VGND.n76 179.65
R185 VGND.t70 VGND.n24 178.903
R186 VGND.n331 VGND.t77 147.839
R187 VGND.n330 VGND.n9 142.013
R188 VGND.n473 VGND.t36 140.379
R189 VGND.n328 VGND.t70 137.305
R190 VGND.n335 VGND.t6 124.846
R191 VGND VGND.t8 119.269
R192 VGND.t77 VGND.n330 113.463
R193 VGND.t9 VGND.n156 96.261
R194 VGND.t17 VGND.n466 94.4922
R195 VGND.t21 VGND.n72 85.506
R196 VGND.t9 VGND.t58 83.7375
R197 VGND.n169 VGND.t39 74.8666
R198 VGND.n183 VGND.t59 74.8666
R199 VGND.n256 VGND.t3 74.8666
R200 VGND.n470 VGND.t64 67.3773
R201 VGND.n162 VGND.t84 54.2862
R202 VGND.n175 VGND.t26 54.2862
R203 VGND.n263 VGND.t51 54.2862
R204 VGND VGND.t9 49.8097
R205 VGND.n473 VGND.n3 46.3668
R206 VGND.n335 VGND.n334 41.2363
R207 VGND.n169 VGND.t1 40.0005
R208 VGND.n183 VGND.t10 40.0005
R209 VGND.n256 VGND.t42 40.0005
R210 VGND.n173 VGND.t16 38.5719
R211 VGND.n173 VGND.t80 38.5719
R212 VGND.n187 VGND.t87 38.5719
R213 VGND.n187 VGND.t14 38.5719
R214 VGND.n251 VGND.t31 38.5719
R215 VGND.n251 VGND.t41 38.5719
R216 VGND.n241 VGND.n163 34.6358
R217 VGND.n245 VGND.n163 34.6358
R218 VGND.n233 VGND.n232 34.6358
R219 VGND.n233 VGND.n167 34.6358
R220 VGND.n237 VGND.n167 34.6358
R221 VGND.n226 VGND.n171 34.6358
R222 VGND.n230 VGND.n171 34.6358
R223 VGND.n210 VGND.n209 34.6358
R224 VGND.n211 VGND.n210 34.6358
R225 VGND.n200 VGND.n199 34.6358
R226 VGND.n200 VGND.n181 34.6358
R227 VGND.n204 VGND.n181 34.6358
R228 VGND.n193 VGND.n185 34.6358
R229 VGND.n197 VGND.n185 34.6358
R230 VGND.n308 VGND.n254 34.6358
R231 VGND.n304 VGND.n254 34.6358
R232 VGND.n302 VGND.n257 34.6358
R233 VGND.n298 VGND.n257 34.6358
R234 VGND.n298 VGND.n297 34.6358
R235 VGND.n292 VGND.n291 34.6358
R236 VGND.n291 VGND.n290 34.6358
R237 VGND.n240 VGND.n239 32.7534
R238 VGND.n206 VGND.n179 32.7534
R239 VGND.n295 VGND.n261 32.7534
R240 VGND.t0 VGND.t38 31.6138
R241 VGND.n239 VGND.n238 31.2476
R242 VGND.n206 VGND.n205 31.2476
R243 VGND.n296 VGND.n295 31.2476
R244 VGND.n466 VGND.n9 31.2108
R245 VGND.n231 VGND.n230 30.8711
R246 VGND.n198 VGND.n197 30.8711
R247 VGND.n304 VGND.n303 30.8711
R248 VGND.n226 VGND.n225 27.4829
R249 VGND.n193 VGND.n192 27.4829
R250 VGND.n309 VGND.n308 27.4829
R251 VGND.n162 VGND.t60 25.9346
R252 VGND.n175 VGND.t49 25.9346
R253 VGND.n263 VGND.t57 25.9346
R254 VGND.n165 VGND.t44 24.9236
R255 VGND.n165 VGND.t86 24.9236
R256 VGND.n178 VGND.t63 24.9236
R257 VGND.n178 VGND.t25 24.9236
R258 VGND.n260 VGND.t73 24.9236
R259 VGND.n260 VGND.t53 24.9236
R260 VGND.n247 VGND.n160 23.7181
R261 VGND.n246 VGND.n245 23.7181
R262 VGND.n220 VGND.n219 23.7181
R263 VGND.n216 VGND.n215 23.7181
R264 VGND.n211 VGND.n176 23.7181
R265 VGND.n315 VGND.n314 23.7181
R266 VGND.n290 VGND.n264 23.7181
R267 VGND.n143 VGND.n142 23.5015
R268 VGND.t43 VGND.n317 22.992
R269 VGND.n224 VGND.n174 22.9652
R270 VGND.n225 VGND.n224 22.9652
R271 VGND.n191 VGND.n188 22.9652
R272 VGND.n192 VGND.n191 22.9652
R273 VGND.n310 VGND.n252 22.9652
R274 VGND.n310 VGND.n309 22.9652
R275 VGND.t9 VGND.t15 22.8379
R276 VGND.n238 VGND.n237 22.2123
R277 VGND.n205 VGND.n204 22.2123
R278 VGND.n297 VGND.n296 22.2123
R279 VGND.n72 VGND.n4 21.5982
R280 VGND.n247 VGND.n246 21.4593
R281 VGND.n220 VGND.n174 21.4593
R282 VGND.n215 VGND.n176 21.4593
R283 VGND.n314 VGND.n252 21.4593
R284 VGND.n149 VGND.n73 21.2541
R285 VGND.n476 VGND.n475 16.3975
R286 VGND.n323 VGND.n48 13.2958
R287 VGND.n337 VGND.n336 13.2958
R288 VGND.n146 VGND.n145 13.2958
R289 VGND.n428 VGND.n427 13.2958
R290 VGND.n329 VGND.n10 13.2958
R291 VGND.n468 VGND.n467 13.2958
R292 VGND.n327 VGND.n326 13.2958
R293 VGND.n341 VGND.n340 13.2958
R294 VGND.n320 VGND.n319 13.2958
R295 VGND.n421 VGND.n420 13.2958
R296 VGND VGND.n274 13.2396
R297 VGND.n153 VGND 13.2396
R298 VGND.n150 VGND 13.2396
R299 VGND.n465 VGND 13.2396
R300 VGND.n5 VGND 13.2396
R301 VGND VGND.n474 13.2396
R302 VGND.n127 VGND 13.2396
R303 VGND VGND.n96 13.2396
R304 VGND.n100 VGND 13.2396
R305 VGND VGND.n104 13.2396
R306 VGND.n133 VGND 13.2396
R307 VGND.n141 VGND 13.2396
R308 VGND.n283 VGND 12.8296
R309 VGND VGND.n287 11.784
R310 VGND.n232 VGND.n231 10.5417
R311 VGND.n199 VGND.n198 10.5417
R312 VGND.n303 VGND.n302 10.5417
R313 VGND.n476 VGND 9.61512
R314 VGND.n290 VGND.n289 9.3005
R315 VGND.n291 VGND.n262 9.3005
R316 VGND.n293 VGND.n292 9.3005
R317 VGND.n295 VGND.n294 9.3005
R318 VGND.n296 VGND.n259 9.3005
R319 VGND.n297 VGND.n258 9.3005
R320 VGND.n299 VGND.n298 9.3005
R321 VGND.n300 VGND.n257 9.3005
R322 VGND.n302 VGND.n301 9.3005
R323 VGND.n303 VGND.n255 9.3005
R324 VGND.n305 VGND.n304 9.3005
R325 VGND.n306 VGND.n254 9.3005
R326 VGND.n308 VGND.n307 9.3005
R327 VGND.n309 VGND.n253 9.3005
R328 VGND.n311 VGND.n310 9.3005
R329 VGND.n312 VGND.n252 9.3005
R330 VGND.n314 VGND.n313 9.3005
R331 VGND.n315 VGND.n250 9.3005
R332 VGND.n191 VGND.n190 9.3005
R333 VGND.n192 VGND.n186 9.3005
R334 VGND.n194 VGND.n193 9.3005
R335 VGND.n195 VGND.n185 9.3005
R336 VGND.n197 VGND.n196 9.3005
R337 VGND.n198 VGND.n184 9.3005
R338 VGND.n199 VGND.n182 9.3005
R339 VGND.n201 VGND.n200 9.3005
R340 VGND.n202 VGND.n181 9.3005
R341 VGND.n204 VGND.n203 9.3005
R342 VGND.n205 VGND.n180 9.3005
R343 VGND.n207 VGND.n206 9.3005
R344 VGND.n209 VGND.n208 9.3005
R345 VGND.n210 VGND.n177 9.3005
R346 VGND.n212 VGND.n211 9.3005
R347 VGND.n213 VGND.n176 9.3005
R348 VGND.n215 VGND.n214 9.3005
R349 VGND.n217 VGND.n216 9.3005
R350 VGND.n219 VGND.n218 9.3005
R351 VGND.n221 VGND.n220 9.3005