* NGSPICE file created from tt_um_oscillating_bones.ext - technology: sky130A

.subckt tt_um_oscillating_bones clk ena rst_n ui_in[0] ui_in[1] ui_in[2] ui_in[3]
+ ui_in[4] ui_in[5] ui_in[6] ui_in[7] uio_in[0] uio_in[1] uio_in[2] uio_in[3] uio_in[4]
+ uio_in[5] uio_in[6] uio_in[7] uio_oe[0] uio_oe[1] uio_oe[2] uio_oe[3] uio_oe[4]
+ uio_oe[5] uio_oe[6] uio_oe[7] uio_out[0] uio_out[1] uio_out[2] uio_out[3] uio_out[4]
+ uio_out[5] uio_out[6] uio_out[7] uo_out[0] uo_out[1] uo_out[2] uo_out[3] uo_out[4]
+ uo_out[5] uo_out[6] uo_out[7] ua[0] ua[1] ua[2] ua[3] ua[4] ua[5] ua[6] ua[7] VAPWR
+ VDPWR VGND
X0 ring_0/skullfet_inverter_7.A ring_0/skullfet_inverter_6.A VAPWR.t15 VAPWR.t14 sky130_fd_pr__pfet_g5v0d10v5 ad=7.5825 pd=29.53 as=5.3775 ps=12.07 w=4.5 l=0.5
X1 VGND.t35 ring_0/skullfet_inverter_4.A ring_0/skullfet_inverter_5.A VGND.t34 sky130_fd_pr__nfet_g5v0d10v5 ad=5.1075 pd=11.95 as=7.8525 ps=29.65 w=4.5 l=0.5
X2 VDPWR.t61 freq_divider_0.sky130_fd_sc_hd__dfxbp_1_3.Q_N a_10715_43723# VDPWR.t60 sky130_fd_pr__pfet_01v8_hvt ad=0.1092 pd=1.36 as=0.05775 ps=0.695 w=0.42 l=0.15
X3 a_10297_43723# a_10168_43997# a_9876_43697# VGND.t53 sky130_fd_pr__nfet_01v8 ad=0.0989 pd=0.995 as=0.0684 ps=0.74 w=0.36 l=0.15
X4 a_10544_44089# a_10297_43723# VDPWR.t45 VDPWR.t44 sky130_fd_pr__pfet_01v8_hvt ad=0.07665 pd=0.785 as=0.178875 ps=1.26 w=0.42 l=0.15
X5 uo_out[0].t1 ua[0].t2 VGND.t47 VGND.t46 sky130_fd_pr__nfet_g5v0d10v5 ad=7.8525 pd=29.65 as=5.1075 ps=11.95 w=4.5 l=0.5
X6 a_10368_43697# a_10161_43697# a_10544_44089# VDPWR.t51 sky130_fd_pr__pfet_01v8_hvt ad=0.06825 pd=0.745 as=0.07665 ps=0.785 w=0.42 l=0.15
X7 VGND.t65 ring_0/skullfet_inverter_12.A ring_0/skullfet_inverter_13.A VGND.t64 sky130_fd_pr__nfet_g5v0d10v5 ad=5.1075 pd=11.95 as=7.8525 ps=29.65 w=4.5 l=0.5
X8 ring_0/skullfet_inverter_4.A ring_0/skullfet_inverter_3.A VAPWR.t33 VAPWR.t32 sky130_fd_pr__pfet_g5v0d10v5 ad=7.5825 pd=29.53 as=5.3775 ps=12.07 w=4.5 l=0.5
X9 VGND.t51 ring_0/skullfet_inverter_6.A ring_0/skullfet_inverter_7.A VGND.t50 sky130_fd_pr__nfet_g5v0d10v5 ad=5.1075 pd=11.95 as=7.8525 ps=29.65 w=4.5 l=0.5
X10 ua[0].t1 skullfet_3v3_buffer.A VAPWR.t25 VAPWR.t24 sky130_fd_pr__pfet_g5v0d10v5 ad=7.5825 pd=29.53 as=5.3775 ps=12.07 w=4.5 l=0.5
X11 a_13468_43697# a_13740_43697# VGND.t75 VGND.t74 sky130_fd_pr__nfet_01v8 ad=0.169 pd=1.82 as=0.08775 ps=0.92 w=0.65 l=0.15
X12 VDPWR.t31 freq_divider_0.sky130_fd_sc_hd__dfxbp_1_2.Q_N a_12647_43723# VDPWR.t30 sky130_fd_pr__pfet_01v8_hvt ad=0.1092 pd=1.36 as=0.05775 ps=0.695 w=0.42 l=0.15
X13 ring_0/skullfet_inverter_3.A ring_0/skullfet_inverter_2.A VAPWR.t35 VAPWR.t34 sky130_fd_pr__pfet_g5v0d10v5 ad=7.5825 pd=29.53 as=5.3775 ps=12.07 w=4.5 l=0.5
X14 a_14232_43697# a_14032_43997# a_14381_43723# VGND.t103 sky130_fd_pr__nfet_01v8 ad=0.0621 pd=0.705 as=0.0696 ps=0.765 w=0.36 l=0.15
X15 VGND.t7 a_11441_43697# freq_divider_0.sky130_fd_sc_hd__dfxbp_1_2.Q_N VGND.t6 sky130_fd_pr__nfet_01v8 ad=0.097 pd=0.975 as=0.169 ps=1.82 w=0.65 l=0.15
X16 VAPWR.t5 ring_0/skullfet_inverter_19.A ring_0/skullfet_inverter_20.A VAPWR.t4 sky130_fd_pr__pfet_g5v0d10v5 ad=5.3775 pd=12.07 as=7.5825 ps=29.53 w=4.5 l=0.5
X17 a_12093_43697# uo_out[1].t2 VDPWR.t37 VDPWR.t36 sky130_fd_pr__pfet_01v8_hvt ad=0.1664 pd=1.8 as=0.0864 ps=0.91 w=0.64 l=0.15
X18 a_12051_44089# a_11536_43697# VDPWR.t13 VDPWR.t12 sky130_fd_pr__pfet_01v8_hvt ad=0.0882 pd=0.84 as=0.1113 ps=1.37 w=0.42 l=0.15
X19 VAPWR.t7 ring_0/skullfet_inverter_20.A ring_0/skullfet_inverter_20.Y VAPWR.t6 sky130_fd_pr__pfet_g5v0d10v5 ad=5.3775 pd=12.07 as=7.5825 ps=29.53 w=4.5 l=0.5
X20 VGND.t117 ring_0/skullfet_inverter_9.A ring_0/skullfet_inverter_10.A VGND.t116 sky130_fd_pr__nfet_g5v0d10v5 ad=5.1075 pd=11.95 as=7.8525 ps=29.65 w=4.5 l=0.5
X21 VGND.t5 a_13468_43697# uo_out[1].t1 VGND.t4 sky130_fd_pr__nfet_01v8 ad=0.08775 pd=0.92 as=0.169 ps=1.82 w=0.65 l=0.15
X22 VDPWR.t73 a_9509_43697# freq_divider_0.sky130_fd_sc_hd__dfxbp_1_3.Q_N VDPWR.t72 sky130_fd_pr__pfet_01v8_hvt ad=0.154 pd=1.335 as=0.26 ps=2.52 w=1 l=0.15
X23 ring_0/skullfet_inverter_20.Y ring_0/skullfet_inverter_20.A VGND.t25 VGND.t24 sky130_fd_pr__nfet_g5v0d10v5 ad=7.8525 pd=29.65 as=5.1075 ps=11.95 w=4.5 l=0.5
X24 ring_0/skullfet_inverter_9.A skullfet_3v3_buffer.A VAPWR.t23 VAPWR.t22 sky130_fd_pr__pfet_g5v0d10v5 ad=7.5825 pd=29.53 as=5.3775 ps=12.07 w=4.5 l=0.5
X25 a_13960_43723# a_13468_43697# VGND.t3 VGND.t2 sky130_fd_pr__nfet_01v8 ad=0.066 pd=0.745 as=0.1092 ps=1.36 w=0.42 l=0.15
X26 ring_0/skullfet_inverter_17.A ring_0/skullfet_inverter_16.A VGND.t113 VGND.t112 sky130_fd_pr__nfet_g5v0d10v5 ad=7.8525 pd=29.65 as=5.1075 ps=11.95 w=4.5 l=0.5
X27 ring_0/skullfet_inverter_18.A ring_0/skullfet_inverter_17.A VGND.t37 VGND.t36 sky130_fd_pr__nfet_g5v0d10v5 ad=7.8525 pd=29.65 as=5.1075 ps=11.95 w=4.5 l=0.5
X28 VGND.t43 a_9604_43697# uo_out[3].t1 VGND.t42 sky130_fd_pr__nfet_01v8 ad=0.08775 pd=0.92 as=0.169 ps=1.82 w=0.65 l=0.15
X29 ring_0/skullfet_inverter_19.A ring_0/skullfet_inverter_18.A VGND.t115 VGND.t114 sky130_fd_pr__nfet_g5v0d10v5 ad=7.8525 pd=29.65 as=5.1075 ps=11.95 w=4.5 l=0.5
X30 VAPWR.t13 ring_0/skullfet_inverter_14.A ring_0/skullfet_inverter_15.A VAPWR.t12 sky130_fd_pr__pfet_g5v0d10v5 ad=5.3775 pd=12.07 as=7.5825 ps=29.53 w=4.5 l=0.5
X31 VGND.t77 a_14232_43697# a_14161_43723# VGND.t76 sky130_fd_pr__nfet_01v8 ad=0.12095 pd=1.085 as=0.0989 ps=0.995 w=0.64 l=0.15
X32 ring_0/skullfet_inverter_13.A ring_0/skullfet_inverter_12.A VAPWR.t19 VAPWR.t18 sky130_fd_pr__pfet_g5v0d10v5 ad=7.5825 pd=29.53 as=5.3775 ps=12.07 w=4.5 l=0.5
X33 VGND.t87 ring_0/skullfet_inverter_11.A ring_0/skullfet_inverter_12.A VGND.t86 sky130_fd_pr__nfet_g5v0d10v5 ad=5.1075 pd=11.95 as=7.8525 ps=29.65 w=4.5 l=0.5
X34 VGND.t107 ring_0/skullfet_inverter_2.A ring_0/skullfet_inverter_3.A VGND.t106 sky130_fd_pr__nfet_g5v0d10v5 ad=5.1075 pd=11.95 as=7.8525 ps=29.65 w=4.5 l=0.5
X35 a_12647_43723# a_12100_43997# a_12300_43697# VDPWR.t57 sky130_fd_pr__pfet_01v8_hvt ad=0.05775 pd=0.695 as=0.06825 ps=0.745 w=0.42 l=0.15
X36 ring_0/skullfet_inverter_14.A ring_0/skullfet_inverter_13.A VGND.t73 VGND.t72 sky130_fd_pr__nfet_g5v0d10v5 ad=7.8525 pd=29.65 as=5.1075 ps=11.95 w=4.5 l=0.5
X37 a_13468_43697# a_13740_43697# VDPWR.t53 VDPWR.t52 sky130_fd_pr__pfet_01v8_hvt ad=0.27 pd=2.54 as=0.135 ps=1.27 w=1 l=0.15
X38 ring_0/skullfet_inverter_2.A ring_0/skullfet_inverter_1.A VAPWR.t31 VAPWR.t30 sky130_fd_pr__pfet_g5v0d10v5 ad=7.5825 pd=29.53 as=5.3775 ps=12.07 w=4.5 l=0.5
X39 a_11441_43697# a_11536_43697# VDPWR.t11 VDPWR.t10 sky130_fd_pr__pfet_01v8_hvt ad=0.1664 pd=1.8 as=0.154 ps=1.335 w=0.64 l=0.15
X40 ring_0/skullfet_inverter_16.A ring_0/skullfet_inverter_15.A VGND.t21 VGND.t20 sky130_fd_pr__nfet_g5v0d10v5 ad=7.8525 pd=29.65 as=5.1075 ps=11.95 w=4.5 l=0.5
X41 VDPWR.t50 a_10161_43697# a_10168_43997# VDPWR.t49 sky130_fd_pr__pfet_01v8_hvt ad=0.0864 pd=0.91 as=0.1664 ps=1.8 w=0.64 l=0.15
X42 ring_0/skullfet_inverter_6.A ring_0/skullfet_inverter_5.A VAPWR.t27 VAPWR.t26 sky130_fd_pr__pfet_g5v0d10v5 ad=7.5825 pd=29.53 as=5.3775 ps=12.07 w=4.5 l=0.5
X43 a_14025_43697# uo_out[0].t2 VGND.t27 VGND.t26 sky130_fd_pr__nfet_01v8 ad=0.1092 pd=1.36 as=0.0567 ps=0.69 w=0.42 l=0.15
X44 a_14232_43697# a_14025_43697# a_14408_44089# VDPWR.t65 sky130_fd_pr__pfet_01v8_hvt ad=0.06825 pd=0.745 as=0.07665 ps=0.785 w=0.42 l=0.15
X45 a_14161_43723# a_14025_43697# a_13740_43697# VDPWR.t64 sky130_fd_pr__pfet_01v8_hvt ad=0.1095 pd=1.075 as=0.0567 ps=0.69 w=0.42 l=0.15
X46 VDPWR.t5 a_13468_43697# uo_out[1].t0 VDPWR.t4 sky130_fd_pr__pfet_01v8_hvt ad=0.135 pd=1.27 as=0.26 ps=2.52 w=1 l=0.15
X47 VDPWR.t17 a_12093_43697# a_12100_43997# VDPWR.t16 sky130_fd_pr__pfet_01v8_hvt ad=0.0864 pd=0.91 as=0.1664 ps=1.8 w=0.64 l=0.15
X48 VDPWR.t29 a_9604_43697# uo_out[3].t0 VDPWR.t28 sky130_fd_pr__pfet_01v8_hvt ad=0.135 pd=1.27 as=0.26 ps=2.52 w=1 l=0.15
X49 VGND.t95 a_14025_43697# a_14032_43997# VGND.t94 sky130_fd_pr__nfet_01v8 ad=0.0567 pd=0.69 as=0.1092 ps=1.36 w=0.42 l=0.15
X50 a_9509_43697# a_9604_43697# VDPWR.t27 VDPWR.t26 sky130_fd_pr__pfet_01v8_hvt ad=0.1664 pd=1.8 as=0.154 ps=1.335 w=0.64 l=0.15
X51 VGND.t109 ring_0/skullfet_inverter_10.A ring_0/skullfet_inverter_11.A VGND.t108 sky130_fd_pr__nfet_g5v0d10v5 ad=5.1075 pd=11.95 as=7.8525 ps=29.65 w=4.5 l=0.5
X52 a_10119_44089# a_9604_43697# VDPWR.t25 VDPWR.t24 sky130_fd_pr__pfet_01v8_hvt ad=0.0882 pd=0.84 as=0.1113 ps=1.37 w=0.42 l=0.15
X53 a_10161_43697# uo_out[2].t2 VDPWR.t21 VDPWR.t20 sky130_fd_pr__pfet_01v8_hvt ad=0.1664 pd=1.8 as=0.0864 ps=0.91 w=0.64 l=0.15
X54 a_13740_43697# a_14032_43997# a_13983_44089# VDPWR.t71 sky130_fd_pr__pfet_01v8_hvt ad=0.0567 pd=0.69 as=0.0882 ps=0.84 w=0.42 l=0.15
X55 VAPWR.t21 ring_0/skullfet_inverter_13.A ring_0/skullfet_inverter_14.A VAPWR.t20 sky130_fd_pr__pfet_g5v0d10v5 ad=5.3775 pd=12.07 as=7.5825 ps=29.53 w=4.5 l=0.5
X56 VGND.t97 ring_0/skullfet_inverter_1.A ring_0/skullfet_inverter_2.A VGND.t96 sky130_fd_pr__nfet_g5v0d10v5 ad=5.1075 pd=11.95 as=7.8525 ps=29.65 w=4.5 l=0.5
X57 a_12028_43723# a_11536_43697# VGND.t15 VGND.t14 sky130_fd_pr__nfet_01v8 ad=0.066 pd=0.745 as=0.1092 ps=1.36 w=0.42 l=0.15
X58 skullfet_3v3_buffer.A ring_0/skullfet_inverter_7.A VAPWR.t17 VAPWR.t16 sky130_fd_pr__pfet_g5v0d10v5 ad=7.5825 pd=29.53 as=5.3775 ps=12.07 w=4.5 l=0.5
X59 a_10517_43723# a_10297_43723# VGND.t63 VGND.t62 sky130_fd_pr__nfet_01v8 ad=0.0696 pd=0.765 as=0.12095 ps=1.085 w=0.42 l=0.15
X60 VAPWR.t41 ring_0/skullfet_inverter_18.A ring_0/skullfet_inverter_19.A VAPWR.t40 sky130_fd_pr__pfet_g5v0d10v5 ad=5.3775 pd=12.07 as=7.5825 ps=29.53 w=4.5 l=0.5
X61 VGND.t83 ring_0/skullfet_inverter_5.A ring_0/skullfet_inverter_6.A VGND.t82 sky130_fd_pr__nfet_g5v0d10v5 ad=5.1075 pd=11.95 as=7.8525 ps=29.65 w=4.5 l=0.5
X62 a_9604_43697# a_9876_43697# VGND.t101 VGND.t100 sky130_fd_pr__nfet_01v8 ad=0.169 pd=1.82 as=0.08775 ps=0.92 w=0.65 l=0.15
X63 VGND.t89 freq_divider_0.sky130_fd_sc_hd__dfxbp_1_1.Q_N a_14579_43723# VGND.t88 sky130_fd_pr__nfet_01v8 ad=0.1092 pd=1.36 as=0.0813 ps=0.83 w=0.42 l=0.15
X64 a_12093_43697# uo_out[1].t3 VGND.t29 VGND.t28 sky130_fd_pr__nfet_01v8 ad=0.1092 pd=1.36 as=0.0567 ps=0.69 w=0.42 l=0.15
X65 VAPWR.t3 ring_0/skullfet_inverter_15.A ring_0/skullfet_inverter_16.A VAPWR.t2 sky130_fd_pr__pfet_g5v0d10v5 ad=5.3775 pd=12.07 as=7.5825 ps=29.53 w=4.5 l=0.5
X66 a_12449_43723# a_12229_43723# VGND.t61 VGND.t60 sky130_fd_pr__nfet_01v8 ad=0.0696 pd=0.765 as=0.12095 ps=1.085 w=0.42 l=0.15
X67 VGND.t13 a_11536_43697# uo_out[2].t1 VGND.t12 sky130_fd_pr__nfet_01v8 ad=0.08775 pd=0.92 as=0.169 ps=1.82 w=0.65 l=0.15
X68 VGND.t111 a_9509_43697# freq_divider_0.sky130_fd_sc_hd__dfxbp_1_3.Q_N VGND.t110 sky130_fd_pr__nfet_01v8 ad=0.097 pd=0.975 as=0.169 ps=1.82 w=0.65 l=0.15
X69 VGND.t105 ring_0/skullfet_inverter_3.A ring_0/skullfet_inverter_4.A VGND.t104 sky130_fd_pr__nfet_g5v0d10v5 ad=5.1075 pd=11.95 as=7.8525 ps=29.65 w=4.5 l=0.5
X70 VGND.t99 a_12300_43697# a_12229_43723# VGND.t98 sky130_fd_pr__nfet_01v8 ad=0.12095 pd=1.085 as=0.0989 ps=0.995 w=0.64 l=0.15
X71 a_10715_43723# a_10168_43997# a_10368_43697# VDPWR.t33 sky130_fd_pr__pfet_01v8_hvt ad=0.05775 pd=0.695 as=0.06825 ps=0.745 w=0.42 l=0.15
X72 a_9604_43697# a_9876_43697# VDPWR.t69 VDPWR.t68 sky130_fd_pr__pfet_01v8_hvt ad=0.27 pd=2.54 as=0.135 ps=1.27 w=1 l=0.15
X73 a_11536_43697# a_11808_43697# VDPWR.t39 VDPWR.t38 sky130_fd_pr__pfet_01v8_hvt ad=0.27 pd=2.54 as=0.135 ps=1.27 w=1 l=0.15
X74 a_13373_43697# a_13468_43697# VGND.t1 VGND.t0 sky130_fd_pr__nfet_01v8 ad=0.1092 pd=1.36 as=0.097 ps=0.975 w=0.42 l=0.15
X75 a_14408_44089# a_14161_43723# VDPWR.t23 VDPWR.t22 sky130_fd_pr__pfet_01v8_hvt ad=0.07665 pd=0.785 as=0.178875 ps=1.26 w=0.42 l=0.15
X76 VGND.t55 ring_0/skullfet_inverter_7.A skullfet_3v3_buffer.A VGND.t54 sky130_fd_pr__nfet_g5v0d10v5 ad=5.1075 pd=11.95 as=7.8525 ps=29.65 w=4.5 l=0.5
X77 VGND.t71 a_10161_43697# a_10168_43997# VGND.t70 sky130_fd_pr__nfet_01v8 ad=0.0567 pd=0.69 as=0.1092 ps=1.36 w=0.42 l=0.15
X78 a_10096_43723# a_9604_43697# VGND.t41 VGND.t40 sky130_fd_pr__nfet_01v8 ad=0.066 pd=0.745 as=0.1092 ps=1.36 w=0.42 l=0.15
X79 VDPWR.t35 ua[0].t3 uo_out[0].t0 VDPWR.t34 sky130_fd_pr__pfet_g5v0d10v5 ad=5.3775 pd=12.07 as=7.5825 ps=29.53 w=4.5 l=0.5
X80 VDPWR.t9 a_11536_43697# uo_out[2].t0 VDPWR.t8 sky130_fd_pr__pfet_01v8_hvt ad=0.135 pd=1.27 as=0.26 ps=2.52 w=1 l=0.15
X81 VDPWR.t41 a_13373_43697# freq_divider_0.sky130_fd_sc_hd__dfxbp_1_1.Q_N VDPWR.t40 sky130_fd_pr__pfet_01v8_hvt ad=0.154 pd=1.335 as=0.26 ps=2.52 w=1 l=0.15
X82 a_14579_43723# a_14025_43697# a_14232_43697# VGND.t93 sky130_fd_pr__nfet_01v8 ad=0.0813 pd=0.83 as=0.0621 ps=0.705 w=0.36 l=0.15
X83 a_14161_43723# a_14032_43997# a_13740_43697# VGND.t102 sky130_fd_pr__nfet_01v8 ad=0.0989 pd=0.995 as=0.0684 ps=0.74 w=0.36 l=0.15
X84 VDPWR.t59 freq_divider_0.sky130_fd_sc_hd__dfxbp_1_1.Q_N a_14579_43723# VDPWR.t58 sky130_fd_pr__pfet_01v8_hvt ad=0.1092 pd=1.36 as=0.05775 ps=0.695 w=0.42 l=0.15
X85 VGND.t19 a_12093_43697# a_12100_43997# VGND.t18 sky130_fd_pr__nfet_01v8 ad=0.0567 pd=0.69 as=0.1092 ps=1.36 w=0.42 l=0.15
X86 a_10368_43697# a_10168_43997# a_10517_43723# VGND.t52 sky130_fd_pr__nfet_01v8 ad=0.0621 pd=0.705 as=0.0696 ps=0.765 w=0.36 l=0.15
X87 a_11808_43697# a_12100_43997# a_12051_44089# VDPWR.t56 sky130_fd_pr__pfet_01v8_hvt ad=0.0567 pd=0.69 as=0.0882 ps=0.84 w=0.42 l=0.15
X88 VAPWR.t11 ring_0/skullfet_inverter_17.A ring_0/skullfet_inverter_18.A VAPWR.t10 sky130_fd_pr__pfet_g5v0d10v5 ad=5.3775 pd=12.07 as=7.5825 ps=29.53 w=4.5 l=0.5
X89 a_10161_43697# uo_out[2].t3 VGND.t31 VGND.t30 sky130_fd_pr__nfet_01v8 ad=0.1092 pd=1.36 as=0.0567 ps=0.69 w=0.42 l=0.15
X90 VAPWR.t39 ring_0/skullfet_inverter_16.A ring_0/skullfet_inverter_17.A VAPWR.t38 sky130_fd_pr__pfet_g5v0d10v5 ad=5.3775 pd=12.07 as=7.5825 ps=29.53 w=4.5 l=0.5
X91 a_11536_43697# a_11808_43697# VGND.t57 VGND.t56 sky130_fd_pr__nfet_01v8 ad=0.169 pd=1.82 as=0.08775 ps=0.92 w=0.65 l=0.15
X92 a_12300_43697# a_12100_43997# a_12449_43723# VGND.t85 sky130_fd_pr__nfet_01v8 ad=0.0621 pd=0.705 as=0.0696 ps=0.765 w=0.36 l=0.15
X93 a_11808_43697# a_12093_43697# a_12028_43723# VGND.t17 sky130_fd_pr__nfet_01v8 ad=0.0684 pd=0.74 as=0.066 ps=0.745 w=0.36 l=0.15
X94 VGND.t67 a_10368_43697# a_10297_43723# VGND.t66 sky130_fd_pr__nfet_01v8 ad=0.12095 pd=1.085 as=0.0989 ps=0.995 w=0.64 l=0.15
X95 ring_0/skullfet_inverter_1.A ring_0/skullfet_inverter_20.Y VAPWR.t1 VAPWR.t0 sky130_fd_pr__pfet_g5v0d10v5 ad=7.5825 pd=29.53 as=5.3775 ps=12.07 w=4.5 l=0.5
X96 a_13373_43697# a_13468_43697# VDPWR.t3 VDPWR.t2 sky130_fd_pr__pfet_01v8_hvt ad=0.1664 pd=1.8 as=0.154 ps=1.335 w=0.64 l=0.15
X97 a_13740_43697# a_14025_43697# a_13960_43723# VGND.t92 sky130_fd_pr__nfet_01v8 ad=0.0684 pd=0.74 as=0.066 ps=0.745 w=0.36 l=0.15
X98 VDPWR.t55 a_14232_43697# a_14161_43723# VDPWR.t54 sky130_fd_pr__pfet_01v8_hvt ad=0.178875 pd=1.26 as=0.1095 ps=1.075 w=0.75 l=0.15
X99 a_10297_43723# a_10161_43697# a_9876_43697# VDPWR.t48 sky130_fd_pr__pfet_01v8_hvt ad=0.1095 pd=1.075 as=0.0567 ps=0.69 w=0.42 l=0.15
X100 VGND.t81 skullfet_3v3_buffer.A ua[0].t0 VGND.t80 sky130_fd_pr__nfet_g5v0d10v5 ad=5.1075 pd=11.95 as=7.8525 ps=29.65 w=4.5 l=0.5
X101 a_12229_43723# a_12100_43997# a_11808_43697# VGND.t84 sky130_fd_pr__nfet_01v8 ad=0.0989 pd=0.995 as=0.0684 ps=0.74 w=0.36 l=0.15
X102 a_11441_43697# a_11536_43697# VGND.t11 VGND.t10 sky130_fd_pr__nfet_01v8 ad=0.1092 pd=1.36 as=0.097 ps=0.975 w=0.42 l=0.15
X103 a_12476_44089# a_12229_43723# VDPWR.t43 VDPWR.t42 sky130_fd_pr__pfet_01v8_hvt ad=0.07665 pd=0.785 as=0.178875 ps=1.26 w=0.42 l=0.15
X104 a_10715_43723# a_10161_43697# a_10368_43697# VGND.t69 sky130_fd_pr__nfet_01v8 ad=0.0813 pd=0.83 as=0.0621 ps=0.705 w=0.36 l=0.15
X105 a_12229_43723# a_12093_43697# a_11808_43697# VDPWR.t15 sky130_fd_pr__pfet_01v8_hvt ad=0.1095 pd=1.075 as=0.0567 ps=0.69 w=0.42 l=0.15
X106 a_12300_43697# a_12093_43697# a_12476_44089# VDPWR.t14 sky130_fd_pr__pfet_01v8_hvt ad=0.06825 pd=0.745 as=0.07665 ps=0.785 w=0.42 l=0.15
X107 ring_0/skullfet_inverter_12.A ring_0/skullfet_inverter_11.A VAPWR.t29 VAPWR.t28 sky130_fd_pr__pfet_g5v0d10v5 ad=7.5825 pd=29.53 as=5.3775 ps=12.07 w=4.5 l=0.5
X108 VDPWR.t7 a_11441_43697# freq_divider_0.sky130_fd_sc_hd__dfxbp_1_2.Q_N VDPWR.t6 sky130_fd_pr__pfet_01v8_hvt ad=0.154 pd=1.335 as=0.26 ps=2.52 w=1 l=0.15
X109 VGND.t9 ring_0/skullfet_inverter_20.Y ring_0/skullfet_inverter_1.A VGND.t8 sky130_fd_pr__nfet_g5v0d10v5 ad=5.1075 pd=11.95 as=7.8525 ps=29.65 w=4.5 l=0.5
X110 VGND.t79 skullfet_3v3_buffer.A ring_0/skullfet_inverter_9.A VGND.t78 sky130_fd_pr__nfet_g5v0d10v5 ad=5.1075 pd=11.95 as=7.8525 ps=29.65 w=4.5 l=0.5
X111 VGND.t59 a_13373_43697# freq_divider_0.sky130_fd_sc_hd__dfxbp_1_1.Q_N VGND.t58 sky130_fd_pr__nfet_01v8 ad=0.097 pd=0.975 as=0.169 ps=1.82 w=0.65 l=0.15
X112 a_12647_43723# a_12093_43697# a_12300_43697# VGND.t16 sky130_fd_pr__nfet_01v8 ad=0.0813 pd=0.83 as=0.0621 ps=0.705 w=0.36 l=0.15
X113 a_9509_43697# a_9604_43697# VGND.t39 VGND.t38 sky130_fd_pr__nfet_01v8 ad=0.1092 pd=1.36 as=0.097 ps=0.975 w=0.42 l=0.15
X114 VGND.t91 freq_divider_0.sky130_fd_sc_hd__dfxbp_1_3.Q_N a_10715_43723# VGND.t90 sky130_fd_pr__nfet_01v8 ad=0.1092 pd=1.36 as=0.0813 ps=0.83 w=0.42 l=0.15
X115 a_9876_43697# a_10168_43997# a_10119_44089# VDPWR.t32 sky130_fd_pr__pfet_01v8_hvt ad=0.0567 pd=0.69 as=0.0882 ps=0.84 w=0.42 l=0.15
X116 ring_0/skullfet_inverter_5.A ring_0/skullfet_inverter_4.A VAPWR.t9 VAPWR.t8 sky130_fd_pr__pfet_g5v0d10v5 ad=7.5825 pd=29.53 as=5.3775 ps=12.07 w=4.5 l=0.5
X117 a_14381_43723# a_14161_43723# VGND.t33 VGND.t32 sky130_fd_pr__nfet_01v8 ad=0.0696 pd=0.765 as=0.12095 ps=1.085 w=0.42 l=0.15
X118 VGND.t45 freq_divider_0.sky130_fd_sc_hd__dfxbp_1_2.Q_N a_12647_43723# VGND.t44 sky130_fd_pr__nfet_01v8 ad=0.1092 pd=1.36 as=0.0813 ps=0.83 w=0.42 l=0.15
X119 a_14579_43723# a_14032_43997# a_14232_43697# VDPWR.t70 sky130_fd_pr__pfet_01v8_hvt ad=0.05775 pd=0.695 as=0.06825 ps=0.745 w=0.42 l=0.15
X120 a_9876_43697# a_10161_43697# a_10096_43723# VGND.t68 sky130_fd_pr__nfet_01v8 ad=0.0684 pd=0.74 as=0.066 ps=0.745 w=0.36 l=0.15
X121 ring_0/skullfet_inverter_20.A ring_0/skullfet_inverter_19.A VGND.t23 VGND.t22 sky130_fd_pr__nfet_g5v0d10v5 ad=7.8525 pd=29.65 as=5.1075 ps=11.95 w=4.5 l=0.5
X122 ring_0/skullfet_inverter_11.A ring_0/skullfet_inverter_10.A VAPWR.t37 VAPWR.t36 sky130_fd_pr__pfet_g5v0d10v5 ad=7.5825 pd=29.53 as=5.3775 ps=12.07 w=4.5 l=0.5
X123 VDPWR.t47 a_10368_43697# a_10297_43723# VDPWR.t46 sky130_fd_pr__pfet_01v8_hvt ad=0.178875 pd=1.26 as=0.1095 ps=1.075 w=0.75 l=0.15
X124 ring_0/skullfet_inverter_10.A ring_0/skullfet_inverter_9.A VAPWR.t43 VAPWR.t42 sky130_fd_pr__pfet_g5v0d10v5 ad=7.5825 pd=29.53 as=5.3775 ps=12.07 w=4.5 l=0.5
X125 a_14025_43697# uo_out[0].t3 VDPWR.t19 VDPWR.t18 sky130_fd_pr__pfet_01v8_hvt ad=0.1664 pd=1.8 as=0.0864 ps=0.91 w=0.64 l=0.15
X126 a_13983_44089# a_13468_43697# VDPWR.t1 VDPWR.t0 sky130_fd_pr__pfet_01v8_hvt ad=0.0882 pd=0.84 as=0.1113 ps=1.37 w=0.42 l=0.15
X127 ring_0/skullfet_inverter_15.A ring_0/skullfet_inverter_14.A VGND.t49 VGND.t48 sky130_fd_pr__nfet_g5v0d10v5 ad=7.8525 pd=29.65 as=5.1075 ps=11.95 w=4.5 l=0.5
X128 VDPWR.t67 a_12300_43697# a_12229_43723# VDPWR.t66 sky130_fd_pr__pfet_01v8_hvt ad=0.178875 pd=1.26 as=0.1095 ps=1.075 w=0.75 l=0.15
X129 VDPWR.t63 a_14025_43697# a_14032_43997# VDPWR.t62 sky130_fd_pr__pfet_01v8_hvt ad=0.0864 pd=0.91 as=0.1664 ps=1.8 w=0.64 l=0.15
R0 VAPWR.n66 VAPWR.t25 738.801
R1 VAPWR.n52 VAPWR.t21 738.799
R2 VAPWR.n54 VAPWR.t19 738.799
R3 VAPWR.n38 VAPWR.t5 738.799
R4 VAPWR.n34 VAPWR.t7 738.799
R5 VAPWR.n6 VAPWR.t31 738.799
R6 VAPWR.n41 VAPWR.t41 738.799
R7 VAPWR.n44 VAPWR.t11 738.799
R8 VAPWR.n47 VAPWR.t39 738.799
R9 VAPWR.n4 VAPWR.t3 738.799
R10 VAPWR.n2 VAPWR.t13 738.799
R11 VAPWR.n60 VAPWR.t37 738.799
R12 VAPWR.n57 VAPWR.t29 738.799
R13 VAPWR.n32 VAPWR.t1 738.799
R14 VAPWR.n7 VAPWR.t35 738.799
R15 VAPWR.n11 VAPWR.t27 738.799
R16 VAPWR.n22 VAPWR.t15 738.799
R17 VAPWR.n19 VAPWR.t17 738.799
R18 VAPWR.n16 VAPWR.t23 738.799
R19 VAPWR.n13 VAPWR.t43 738.799
R20 VAPWR.n9 VAPWR.t9 738.799
R21 VAPWR.n27 VAPWR.t33 738.799
R22 VAPWR.n60 VAPWR.t36 707.519
R23 VAPWR.n57 VAPWR.t28 707.519
R24 VAPWR.n52 VAPWR.t20 707.519
R25 VAPWR.n54 VAPWR.t18 707.519
R26 VAPWR.n38 VAPWR.t4 707.519
R27 VAPWR.n34 VAPWR.t6 707.519
R28 VAPWR.n32 VAPWR.t0 707.519
R29 VAPWR.n6 VAPWR.t30 707.519
R30 VAPWR.n7 VAPWR.t34 707.519
R31 VAPWR.n11 VAPWR.t26 707.519
R32 VAPWR.n22 VAPWR.t14 707.519
R33 VAPWR.n19 VAPWR.t16 707.519
R34 VAPWR.n16 VAPWR.t22 707.519
R35 VAPWR.n13 VAPWR.t42 707.519
R36 VAPWR.n9 VAPWR.t8 707.519
R37 VAPWR.n27 VAPWR.t32 707.519
R38 VAPWR.n41 VAPWR.t40 707.519
R39 VAPWR.n44 VAPWR.t10 707.519
R40 VAPWR.n47 VAPWR.t38 707.519
R41 VAPWR.n4 VAPWR.t2 707.519
R42 VAPWR.n2 VAPWR.t12 707.519
R43 VAPWR.n66 VAPWR.t24 707.519
R44 VAPWR.n67 VAPWR 13.899
R45 VAPWR.n61 VAPWR.n60 13.3797
R46 VAPWR.n58 VAPWR.n57 13.3797
R47 VAPWR.n33 VAPWR.n32 13.3797
R48 VAPWR.n8 VAPWR.n7 13.3797
R49 VAPWR.n12 VAPWR.n11 13.3797
R50 VAPWR.n23 VAPWR.n22 13.3797
R51 VAPWR.n20 VAPWR.n19 13.3797
R52 VAPWR.n17 VAPWR.n16 13.3797
R53 VAPWR.n14 VAPWR.n13 13.3797
R54 VAPWR.n10 VAPWR.n9 13.3797
R55 VAPWR.n28 VAPWR.n27 13.3797
R56 VAPWR.n53 VAPWR.n52 13.3223
R57 VAPWR VAPWR.n54 13.3223
R58 VAPWR.n39 VAPWR.n38 13.3223
R59 VAPWR.n35 VAPWR.n34 13.3223
R60 VAPWR VAPWR.n6 13.3223
R61 VAPWR.n42 VAPWR.n41 13.3223
R62 VAPWR.n45 VAPWR.n44 13.3223
R63 VAPWR.n48 VAPWR.n47 13.3223
R64 VAPWR.n5 VAPWR.n4 13.3223
R65 VAPWR.n3 VAPWR.n2 13.3223
R66 VAPWR VAPWR.n66 13.3223
R67 VAPWR.n59 VAPWR.n58 9.70762
R68 VAPWR.n18 VAPWR.n15 9.45042
R69 VAPWR.n31 VAPWR 8.52916
R70 VAPWR.n62 VAPWR.n61 7.92611
R71 VAPWR.n40 VAPWR.n37 7.71912
R72 VAPWR.n15 VAPWR.n14 7.71771
R73 VAPWR.n31 VAPWR.n30 7.41572
R74 VAPWR.n55 VAPWR 7.13154
R75 VAPWR.n40 VAPWR.n39 7.11663
R76 VAPWR.n18 VAPWR.n17 7.10884
R77 VAPWR.n43 VAPWR.n42 6.89753
R78 VAPWR.n21 VAPWR.n20 6.54898
R79 VAPWR.n49 VAPWR.n46 6.23852
R80 VAPWR.n30 VAPWR.n8 6.19396
R81 VAPWR.n46 VAPWR.n45 6.10554
R82 VAPWR.n29 VAPWR.n28 6.01845
R83 VAPWR.n36 VAPWR.n35 5.92055
R84 VAPWR.n49 VAPWR.n48 5.84717
R85 VAPWR.n24 VAPWR.n23 5.78073
R86 VAPWR.n26 VAPWR.n10 5.73072
R87 VAPWR.n50 VAPWR.n5 5.60146
R88 VAPWR.n51 VAPWR.n3 5.59565
R89 VAPWR.n25 VAPWR.n12 5.50466
R90 VAPWR.n55 VAPWR.n53 4.89777
R91 VAPWR.n36 VAPWR.n33 4.86074
R92 VAPWR.n46 VAPWR.n43 4.01511
R93 VAPWR.n67 VAPWR 3.49636
R94 VAPWR.n69 VAPWR 3.44936
R95 VAPWR.n37 VAPWR.n36 2.91269
R96 VAPWR.n59 VAPWR.n56 2.82184
R97 VAPWR.n1 VAPWR.n0 1.63622
R98 VAPWR.n24 VAPWR.n21 1.36014
R99 VAPWR.n30 VAPWR.n29 1.34127
R100 VAPWR.n56 VAPWR.n51 1.32921
R101 VAPWR.n56 VAPWR.n55 1.313
R102 VAPWR.n63 VAPWR.n0 1.29727
R103 VAPWR.n29 VAPWR.n26 1.10191
R104 VAPWR.n51 VAPWR.n50 0.940035
R105 VAPWR.n62 VAPWR.n59 0.85748
R106 VAPWR.n37 VAPWR.n31 0.767594
R107 VAPWR.n68 VAPWR.n65 0.616014
R108 VAPWR.n25 VAPWR.n24 0.52495
R109 VAPWR.n43 VAPWR.n40 0.514977
R110 VAPWR.n15 VAPWR.n1 0.507476
R111 VAPWR.n26 VAPWR.n25 0.505442
R112 VAPWR.n21 VAPWR.n18 0.500622
R113 VAPWR.n50 VAPWR.n49 0.483622
R114 VAPWR.n65 VAPWR.n0 0.20333
R115 VAPWR VAPWR.n69 0.193138
R116 VAPWR.n61 VAPWR 0.057877
R117 VAPWR.n58 VAPWR 0.057877
R118 VAPWR.n33 VAPWR 0.057877
R119 VAPWR.n8 VAPWR 0.057877
R120 VAPWR.n12 VAPWR 0.057877
R121 VAPWR.n23 VAPWR 0.057877
R122 VAPWR.n20 VAPWR 0.057877
R123 VAPWR.n17 VAPWR 0.057877
R124 VAPWR.n14 VAPWR 0.057877
R125 VAPWR.n10 VAPWR 0.057877
R126 VAPWR.n28 VAPWR 0.057877
R127 VAPWR.n53 VAPWR 0.0496071
R128 VAPWR.n39 VAPWR 0.0496071
R129 VAPWR.n35 VAPWR 0.0496071
R130 VAPWR.n42 VAPWR 0.0496071
R131 VAPWR.n45 VAPWR 0.0496071
R132 VAPWR.n48 VAPWR 0.0496071
R133 VAPWR.n5 VAPWR 0.0496071
R134 VAPWR.n3 VAPWR 0.0496071
R135 VAPWR.n65 VAPWR.n64 0.0335189
R136 VAPWR.n64 VAPWR.n1 0.00474612
R137 VAPWR.n63 VAPWR.n62 0.00305102
R138 VAPWR.n64 VAPWR.n63 0.00285849
R139 VAPWR.n68 VAPWR.n67 0.0018126
R140 VAPWR.n69 VAPWR.n68 0.0018126
R141 VGND.n209 VGND.n194 101372
R142 VGND.n272 VGND.n158 97829.8
R143 VGND.n234 VGND.n183 63317.7
R144 VGND.n228 VGND.n217 49981.2
R145 VGND.n230 VGND.t108 48989.1
R146 VGND.n195 VGND.n182 48956.8
R147 VGND.n226 VGND.n159 34056.2
R148 VGND.n218 VGND.n118 31758
R149 VGND.n431 VGND.n52 31668.4
R150 VGND.n326 VGND.n325 31013.9
R151 VGND.n201 VGND.n196 31013.9
R152 VGND.n325 VGND.n324 30664.6
R153 VGND.n204 VGND.n196 30664.6
R154 VGND.n225 VGND.n224 30639.5
R155 VGND.n430 VGND.n53 29705.2
R156 VGND.n228 VGND.n184 26125.9
R157 VGND.n231 VGND.n230 24501.8
R158 VGND.n233 VGND.n184 22668.4
R159 VGND.n195 VGND.n194 20954.6
R160 VGND.n158 VGND.n53 20954.6
R161 VGND.n229 VGND.n193 18294.4
R162 VGND.n328 VGND.n52 16731.6
R163 VGND.n196 VGND.n195 13862.9
R164 VGND.n325 VGND.n53 13853.3
R165 VGND.n230 VGND.n184 10983.3
R166 VGND.n328 VGND.t98 10623.7
R167 VGND.t72 VGND.n234 8761.83
R168 VGND.n233 VGND.n232 8254.98
R169 VGND.n194 VGND.n183 8164.43
R170 VGND.n234 VGND.n233 8000.6
R171 VGND.n270 VGND.n160 7798.05
R172 VGND.n219 VGND.n218 7223.1
R173 VGND.n228 VGND.n183 6658.85
R174 VGND.n193 VGND.n187 6298.11
R175 VGND.n211 VGND.n160 6257.53
R176 VGND.n225 VGND.n158 6251.53
R177 VGND.n234 VGND.n182 5608.83
R178 VGND.n226 VGND.n225 4619.12
R179 VGND.n264 VGND.t8 4526.67
R180 VGND.n217 VGND.n210 4456.64
R181 VGND.n231 VGND.n185 4323.23
R182 VGND.n193 VGND.n192 4311.21
R183 VGND.n213 VGND.n211 3590.94
R184 VGND.n269 VGND.t8 3461.39
R185 VGND.n271 VGND.n159 3297.03
R186 VGND.n227 VGND.n160 3097.77
R187 VGND.n229 VGND.n228 3097.77
R188 VGND.n216 VGND.n214 3043.22
R189 VGND.n270 VGND.t106 2956.47
R190 VGND.n192 VGND.n191 2374.28
R191 VGND.n192 VGND.n189 2325.64
R192 VGND.n209 VGND.t114 2293.69
R193 VGND.n235 VGND.t72 2108.34
R194 VGND.n214 VGND.n160 2021.45
R195 VGND.n218 VGND.t110 1534.08
R196 VGND.n187 VGND.t116 1523.34
R197 VGND.t22 VGND.n216 1523.34
R198 VGND.n272 VGND.t104 1467.82
R199 VGND.n221 VGND.n219 1240.19
R200 VGND.t48 VGND.n182 1206.01
R201 VGND.n329 VGND.n76 1198.25
R202 VGND.n369 VGND.n368 1198.25
R203 VGND.n367 VGND.n63 1198.25
R204 VGND.n331 VGND.n330 1198.25
R205 VGND.n211 VGND.t8 1196.46
R206 VGND.t106 VGND.n159 1186.75
R207 VGND.n161 VGND.n159 921.593
R208 VGND.n208 VGND.n206 892.495
R209 VGND.t20 VGND.n198 842.21
R210 VGND.t18 VGND.t44 800.774
R211 VGND.t0 VGND.t4 797.881
R212 VGND.n273 VGND.t34 787.793
R213 VGND.n326 VGND.t50 779.42
R214 VGND.n118 VGND 684.976
R215 VGND.n272 VGND.n271 655.47
R216 VGND.n210 VGND.n209 634.295
R217 VGND.n224 VGND.n223 600.63
R218 VGND.n330 VGND.t58 596.322
R219 VGND.n221 VGND.n220 585
R220 VGND.n187 VGND.n186 585
R221 VGND.n189 VGND.n188 585
R222 VGND.n191 VGND.n190 585
R223 VGND.n323 VGND.n322 585
R224 VGND.n433 VGND.n432 585
R225 VGND.n295 VGND.n119 585
R226 VGND.n274 VGND.n273 585
R227 VGND.n200 VGND.n199 585
R228 VGND.n198 VGND.n197 585
R229 VGND.n203 VGND.n202 585
R230 VGND.n206 VGND.n205 585
R231 VGND.n208 VGND.n207 585
R232 VGND.n216 VGND.n215 585
R233 VGND.n213 VGND.n212 585
R234 VGND.n269 VGND.n268 585
R235 VGND.n223 VGND.n222 585
R236 VGND.n366 VGND.n365 585
R237 VGND.n428 VGND.n427 585
R238 VGND.n189 VGND.t108 574.539
R239 VGND.n324 VGND.t82 539.317
R240 VGND.t112 VGND.n201 533.332
R241 VGND.t36 VGND.n204 500.077
R242 VGND.t44 VGND.t16 477.058
R243 VGND.n431 VGND.n430 425.618
R244 VGND.n232 VGND.t64 424.175
R245 VGND.n327 VGND.n118 422.882
R246 VGND.t16 VGND.t85 421.685
R247 VGND.t85 VGND.t60 421.685
R248 VGND.n430 VGND.n429 405.947
R249 VGND.t58 VGND.t0 404.647
R250 VGND.n330 VGND.n329 391.868
R251 VGND.n329 VGND 391.868
R252 VGND.n201 VGND.n200 382.728
R253 VGND.t74 VGND.t2 381.911
R254 VGND.t56 VGND.t14 381.911
R255 VGND.n324 VGND.n119 377.945
R256 VGND.t94 VGND.t88 377.889
R257 VGND.t10 VGND.t12 377.889
R258 VGND.t70 VGND.t90 377.889
R259 VGND.t38 VGND.t42 377.889
R260 VGND.n191 VGND.t86 362.452
R261 VGND.n217 VGND.t22 360.884
R262 VGND.n204 VGND.n203 360.842
R263 VGND.t28 VGND.t18 357.793
R264 VGND.n273 VGND.n272 302.216
R265 VGND.n264 VGND.t9 282.13
R266 VGND.n161 VGND.t107 282.13
R267 VGND.n295 VGND.t35 282.13
R268 VGND.n433 VGND.t51 282.13
R269 VGND.n188 VGND.t109 282.13
R270 VGND.n220 VGND.t79 282.13
R271 VGND.n186 VGND.t117 282.13
R272 VGND.n190 VGND.t87 282.13
R273 VGND.n222 VGND.t55 282.13
R274 VGND.n322 VGND.t83 282.13
R275 VGND.n274 VGND.t105 282.13
R276 VGND.n365 VGND.t47 281.841
R277 VGND.n427 VGND.t81 281.841
R278 VGND.n235 VGND.t73 281.839
R279 VGND.n215 VGND.t23 281.839
R280 VGND.n212 VGND.t25 281.839
R281 VGND.n185 VGND.t65 281.839
R282 VGND.n268 VGND.t97 281.839
R283 VGND.n207 VGND.t115 281.839
R284 VGND.n205 VGND.t37 281.839
R285 VGND.n202 VGND.t113 281.839
R286 VGND.n197 VGND.t49 281.839
R287 VGND.n199 VGND.t21 281.839
R288 VGND.n368 VGND.t6 281.408
R289 VGND.n230 VGND.n229 264.286
R290 VGND.n107 VGND.t3 251
R291 VGND.n354 VGND.t15 251
R292 VGND.n392 VGND.t41 251
R293 VGND.n232 VGND.t86 245.631
R294 VGND.n94 VGND.t89 243.028
R295 VGND.n341 VGND.t45 243.028
R296 VGND.n379 VGND.t91 243.028
R297 VGND.t76 VGND.t32 239.196
R298 VGND.n429 VGND.t54 237.476
R299 VGND.t88 VGND.t93 225.126
R300 VGND.n432 VGND.t50 222.331
R301 VGND.n81 VGND.n80 218.506
R302 VGND.n68 VGND.n67 218.506
R303 VGND.n394 VGND.n393 218.506
R304 VGND.n224 VGND.t78 214.124
R305 VGND.t92 VGND.t102 213.065
R306 VGND.t17 VGND.t84 213.065
R307 VGND.t68 VGND.t53 213.065
R308 VGND.n228 VGND.n227 209.014
R309 VGND.t80 VGND.t40 205.025
R310 VGND.t102 VGND.t76 203.016
R311 VGND.n78 VGND.n77 200.201
R312 VGND.n65 VGND.n64 200.201
R313 VGND.n402 VGND.n401 200.201
R314 VGND.n90 VGND.n89 199.739
R315 VGND.n337 VGND.n336 199.739
R316 VGND.n375 VGND.n374 199.739
R317 VGND.n100 VGND.n85 199.53
R318 VGND.n347 VGND.n73 199.53
R319 VGND.n385 VGND.n60 199.53
R320 VGND.t32 VGND.t103 198.995
R321 VGND.t69 VGND.t52 198.995
R322 VGND.t52 VGND.t62 198.995
R323 VGND.n223 VGND.t54 196.702
R324 VGND.n429 VGND.t66 194.976
R325 VGND.t2 VGND.t92 190.956
R326 VGND.t14 VGND.t17 190.956
R327 VGND.t6 VGND.t10 190.956
R328 VGND.t40 VGND.t68 190.956
R329 VGND.t110 VGND.t38 190.956
R330 VGND.n368 VGND.n367 184.925
R331 VGND.n367 VGND.t46 182.916
R332 VGND.n366 VGND.t69 178.894
R333 VGND.n214 VGND.n210 178.196
R334 VGND.t100 VGND.t80 176.885
R335 VGND.t26 VGND.t94 168.845
R336 VGND.t4 VGND.t74 168.845
R337 VGND.t12 VGND.t56 168.845
R338 VGND.t30 VGND.t70 168.845
R339 VGND.t42 VGND.t100 168.845
R340 VGND.t78 VGND.n221 164.337
R341 VGND.t82 VGND.n323 162.868