* NGSPICE file created from tt_um_oscillating_bones.ext - technology: sky130A

.subckt tt_um_oscillating_bones clk ena rst_n ui_in[0] ui_in[1] ui_in[2] ui_in[3]
+ ui_in[4] ui_in[5] ui_in[6] ui_in[7] uio_in[0] uio_in[1] uio_in[2] uio_in[3] uio_in[4]
+ uio_in[5] uio_in[6] uio_in[7] uio_oe[0] uio_oe[1] uio_oe[2] uio_oe[3] uio_oe[4]
+ uio_oe[5] uio_oe[6] uio_oe[7] uio_out[0] uio_out[1] uio_out[2] uio_out[3] uio_out[4]
+ uio_out[5] uio_out[6] uio_out[7] uo_out[0] uo_out[1] uo_out[2] uo_out[3] uo_out[4]
+ uo_out[5] uo_out[6] uo_out[7] ua[0] ua[1] ua[2] ua[3] ua[4] ua[5] ua[6] ua[7] VAPWR
+ VDPWR VGND
X0 ring_0/skullfet_inverter_7.A ring_0/skullfet_inverter_6.A VAPWR.t27 VAPWR.t26 sky130_fd_pr__pfet_g5v0d10v5 ad=7.5825 pd=29.53 as=5.3775 ps=12.07 w=4.5 l=0.5
X1 VGND.t66 ring_0/skullfet_inverter_4.A ring_0/skullfet_inverter_5.A VGND.t65 sky130_fd_pr__nfet_g5v0d10v5 ad=5.1075 pd=11.95 as=7.8525 ps=29.65 w=4.5 l=0.5
X2 VDPWR.t63 freq_divider_0.sky130_fd_sc_hd__dfxbp_1_3.Q_N a_10715_43723# VDPWR.t62 sky130_fd_pr__pfet_01v8_hvt ad=0.1092 pd=1.36 as=0.05775 ps=0.695 w=0.42 l=0.15
X3 a_10544_44089# a_10297_43723# VDPWR.t57 VDPWR.t56 sky130_fd_pr__pfet_01v8_hvt ad=0.07665 pd=0.785 as=0.178875 ps=1.26 w=0.42 l=0.15
X4 a_10297_43723# a_10168_43997# a_9876_43697# VGND.t36 sky130_fd_pr__special_nfet_01v8 ad=0.0989 pd=0.995 as=0.0684 ps=0.74 w=0.36 l=0.15
X5 a_10368_43697# a_10161_43697# a_10544_44089# VDPWR.t61 sky130_fd_pr__pfet_01v8_hvt ad=0.06825 pd=0.745 as=0.07665 ps=0.785 w=0.42 l=0.15
X6 VGND.t83 ring_0/skullfet_inverter_12.A ring_0/skullfet_inverter_13.A VGND.t82 sky130_fd_pr__nfet_g5v0d10v5 ad=5.1075 pd=11.95 as=7.8525 ps=29.65 w=4.5 l=0.5
X7 ring_0/skullfet_inverter_4.A ring_0/skullfet_inverter_3.A VAPWR.t31 VAPWR.t30 sky130_fd_pr__pfet_g5v0d10v5 ad=7.5825 pd=29.53 as=5.3775 ps=12.07 w=4.5 l=0.5
X8 VGND.t62 ring_0/skullfet_inverter_6.A ring_0/skullfet_inverter_7.A VGND.t61 sky130_fd_pr__nfet_g5v0d10v5 ad=5.1075 pd=11.95 as=7.8525 ps=29.65 w=4.5 l=0.5
X9 a_13468_43697# a_13740_43697# VGND.t57 VGND.t56 sky130_fd_pr__nfet_01v8 ad=0.169 pd=1.82 as=0.08775 ps=0.92 w=0.65 l=0.15
X10 VDPWR.t17 freq_divider_0.sky130_fd_sc_hd__dfxbp_1_2.Q_N a_12647_43723# VDPWR.t16 sky130_fd_pr__pfet_01v8_hvt ad=0.1092 pd=1.36 as=0.05775 ps=0.695 w=0.42 l=0.15
X11 ring_0/skullfet_inverter_3.A ring_0/skullfet_inverter_2.A VAPWR.t33 VAPWR.t32 sky130_fd_pr__pfet_g5v0d10v5 ad=7.5825 pd=29.53 as=5.3775 ps=12.07 w=4.5 l=0.5
X12 VGND.t55 a_11441_43697# freq_divider_0.sky130_fd_sc_hd__dfxbp_1_2.Q_N VGND.t54 sky130_fd_pr__nfet_01v8 ad=0.097 pd=0.975 as=0.169 ps=1.82 w=0.65 l=0.15
X13 VAPWR.t23 ring_0/skullfet_inverter_19.A ring_0/skullfet_inverter_20.A VAPWR.t22 sky130_fd_pr__pfet_g5v0d10v5 ad=5.3775 pd=12.07 as=7.5825 ps=29.53 w=4.5 l=0.5
X14 a_12093_43697# uo_out[1].t2 VDPWR.t13 VDPWR.t12 sky130_fd_pr__pfet_01v8_hvt ad=0.1664 pd=1.8 as=0.0864 ps=0.91 w=0.64 l=0.15
X15 a_12051_44089# a_11536_43697# VDPWR.t37 VDPWR.t36 sky130_fd_pr__pfet_01v8_hvt ad=0.0882 pd=0.84 as=0.1113 ps=1.37 w=0.42 l=0.15
X16 VAPWR.t21 ring_0/skullfet_inverter_20.A ring_0/skullfet_inverter_20.Y VAPWR.t20 sky130_fd_pr__pfet_g5v0d10v5 ad=5.3775 pd=12.07 as=7.5825 ps=29.53 w=4.5 l=0.5
X17 a_14232_43697# a_14032_43997# a_14381_43723# VGND.t6 sky130_fd_pr__special_nfet_01v8 ad=0.0621 pd=0.705 as=0.0696 ps=0.765 w=0.36 l=0.15
X18 VGND.t3 ring_0/skullfet_inverter_9.A ring_0/skullfet_inverter_10.A VGND.t2 sky130_fd_pr__nfet_g5v0d10v5 ad=5.1075 pd=11.95 as=7.8525 ps=29.65 w=4.5 l=0.5
X19 VGND.t69 a_13468_43697# uo_out[1].t0 VGND.t56 sky130_fd_pr__nfet_01v8 ad=0.08775 pd=0.92 as=0.169 ps=1.82 w=0.65 l=0.15
X20 VDPWR.t65 a_9509_43697# freq_divider_0.sky130_fd_sc_hd__dfxbp_1_3.Q_N VDPWR.t64 sky130_fd_pr__pfet_01v8_hvt ad=0.154 pd=1.335 as=0.26 ps=2.52 w=1 l=0.15
X21 ring_0/skullfet_inverter_20.Y ring_0/skullfet_inverter_20.A VGND.t51 VGND.t50 sky130_fd_pr__nfet_g5v0d10v5 ad=7.8525 pd=29.65 as=5.1075 ps=11.95 w=4.5 l=0.5
X22 ring_0/skullfet_inverter_9.A skullfet_level_shifter.A VAPWR.t7 VAPWR.t6 sky130_fd_pr__pfet_g5v0d10v5 ad=7.5825 pd=29.53 as=5.3775 ps=12.07 w=4.5 l=0.5
X23 a_13960_43723# a_13468_43697# VGND.t68 VGND.t9 sky130_fd_pr__nfet_01v8 ad=0.066 pd=0.745 as=0.1092 ps=1.36 w=0.42 l=0.15
X24 ring_0/skullfet_inverter_17.A ring_0/skullfet_inverter_16.A VGND.t87 VGND.t86 sky130_fd_pr__nfet_g5v0d10v5 ad=7.8525 pd=29.65 as=5.1075 ps=11.95 w=4.5 l=0.5
X25 ring_0/skullfet_inverter_18.A ring_0/skullfet_inverter_17.A VGND.t89 VGND.t88 sky130_fd_pr__nfet_g5v0d10v5 ad=7.8525 pd=29.65 as=5.1075 ps=11.95 w=4.5 l=0.5
X26 VGND.t95 a_9604_43697# uo_out[3].t0 VGND.t94 sky130_fd_pr__nfet_01v8 ad=0.08775 pd=0.92 as=0.169 ps=1.82 w=0.65 l=0.15
X27 ring_0/skullfet_inverter_19.A ring_0/skullfet_inverter_18.A VGND.t24 VGND.t23 sky130_fd_pr__nfet_g5v0d10v5 ad=7.8525 pd=29.65 as=5.1075 ps=11.95 w=4.5 l=0.5
X28 VAPWR.t41 ring_0/skullfet_inverter_14.A ring_0/skullfet_inverter_15.A VAPWR.t40 sky130_fd_pr__pfet_g5v0d10v5 ad=5.3775 pd=12.07 as=7.5825 ps=29.53 w=4.5 l=0.5
X29 VGND.t5 a_14232_43697# a_14161_43723# VGND.t4 sky130_fd_pr__nfet_01v8 ad=0.12095 pd=1.085 as=0.0989 ps=0.995 w=0.64 l=0.15
X30 ring_0/skullfet_inverter_13.A ring_0/skullfet_inverter_12.A VAPWR.t35 VAPWR.t34 sky130_fd_pr__pfet_g5v0d10v5 ad=7.5825 pd=29.53 as=5.3775 ps=12.07 w=4.5 l=0.5
X31 VGND.t16 ring_0/skullfet_inverter_11.A ring_0/skullfet_inverter_12.A VGND.t15 sky130_fd_pr__nfet_g5v0d10v5 ad=5.1075 pd=11.95 as=7.8525 ps=29.65 w=4.5 l=0.5
X32 VGND.t81 ring_0/skullfet_inverter_2.A ring_0/skullfet_inverter_3.A VGND.t80 sky130_fd_pr__nfet_g5v0d10v5 ad=5.1075 pd=11.95 as=7.8525 ps=29.65 w=4.5 l=0.5
X33 a_12647_43723# a_12100_43997# a_12300_43697# VDPWR.t25 sky130_fd_pr__pfet_01v8_hvt ad=0.05775 pd=0.695 as=0.06825 ps=0.745 w=0.42 l=0.15
X34 ring_0/skullfet_inverter_14.A ring_0/skullfet_inverter_13.A VGND.t49 VGND.t48 sky130_fd_pr__nfet_g5v0d10v5 ad=7.8525 pd=29.65 as=5.1075 ps=11.95 w=4.5 l=0.5
X35 a_13468_43697# a_13740_43697# VDPWR.t45 VDPWR.t44 sky130_fd_pr__pfet_01v8_hvt ad=0.27 pd=2.54 as=0.135 ps=1.27 w=1 l=0.15
X36 ring_0/skullfet_inverter_2.A ring_0/skullfet_inverter_1.A VAPWR.t11 VAPWR.t10 sky130_fd_pr__pfet_g5v0d10v5 ad=7.5825 pd=29.53 as=5.3775 ps=12.07 w=4.5 l=0.5
X37 a_11441_43697# a_11536_43697# VDPWR.t35 VDPWR.t34 sky130_fd_pr__pfet_01v8_hvt ad=0.1664 pd=1.8 as=0.154 ps=1.335 w=0.64 l=0.15
X38 ring_0/skullfet_inverter_16.A ring_0/skullfet_inverter_15.A VGND.t60 VGND.t59 sky130_fd_pr__nfet_g5v0d10v5 ad=7.8525 pd=29.65 as=5.1075 ps=11.95 w=4.5 l=0.5
X39 VDPWR.t60 a_10161_43697# a_10168_43997# VDPWR.t59 sky130_fd_pr__pfet_01v8_hvt ad=0.0864 pd=0.91 as=0.1664 ps=1.8 w=0.64 l=0.15
X40 ring_0/skullfet_inverter_6.A ring_0/skullfet_inverter_5.A VAPWR.t17 VAPWR.t16 sky130_fd_pr__pfet_g5v0d10v5 ad=7.5825 pd=29.53 as=5.3775 ps=12.07 w=4.5 l=0.5
X41 uo_out[0].t0 skullfet_level_shifter.A VGND.t14 VGND.t13 sky130_fd_pr__nfet_g5v0d10v5 ad=7.8525 pd=29.65 as=5.1075 ps=11.95 w=4.5 l=0.5
X42 a_14025_43697# uo_out[0].t2 VGND.t31 VGND.t9 sky130_fd_pr__nfet_01v8 ad=0.1092 pd=1.36 as=0.0567 ps=0.69 w=0.42 l=0.15
X43 a_14232_43697# a_14025_43697# a_14408_44089# VDPWR.t23 sky130_fd_pr__pfet_01v8_hvt ad=0.06825 pd=0.745 as=0.07665 ps=0.785 w=0.42 l=0.15
X44 a_14161_43723# a_14025_43697# a_13740_43697# VDPWR.t22 sky130_fd_pr__pfet_01v8_hvt ad=0.1095 pd=1.075 as=0.0567 ps=0.69 w=0.42 l=0.15
X45 VDPWR.t55 a_13468_43697# uo_out[1].t1 VDPWR.t54 sky130_fd_pr__pfet_01v8_hvt ad=0.135 pd=1.27 as=0.26 ps=2.52 w=1 l=0.15
X46 VDPWR.t41 a_12093_43697# a_12100_43997# VDPWR.t40 sky130_fd_pr__pfet_01v8_hvt ad=0.0864 pd=0.91 as=0.1664 ps=1.8 w=0.64 l=0.15
X47 VDPWR.t71 a_9604_43697# uo_out[3].t1 VDPWR.t70 sky130_fd_pr__pfet_01v8_hvt ad=0.135 pd=1.27 as=0.26 ps=2.52 w=1 l=0.15
X48 VGND.t30 a_14025_43697# a_14032_43997# VGND.t9 sky130_fd_pr__nfet_01v8 ad=0.0567 pd=0.69 as=0.1092 ps=1.36 w=0.42 l=0.15
X49 a_9509_43697# a_9604_43697# VDPWR.t69 VDPWR.t68 sky130_fd_pr__pfet_01v8_hvt ad=0.1664 pd=1.8 as=0.154 ps=1.335 w=0.64 l=0.15
X50 VGND.t1 ring_0/skullfet_inverter_10.A ring_0/skullfet_inverter_11.A VGND.t0 sky130_fd_pr__nfet_g5v0d10v5 ad=5.1075 pd=11.95 as=7.8525 ps=29.65 w=4.5 l=0.5
X51 a_10119_44089# a_9604_43697# VDPWR.t67 VDPWR.t66 sky130_fd_pr__pfet_01v8_hvt ad=0.0882 pd=0.84 as=0.1113 ps=1.37 w=0.42 l=0.15
X52 a_10161_43697# uo_out[2].t2 VDPWR.t11 VDPWR.t10 sky130_fd_pr__pfet_01v8_hvt ad=0.1664 pd=1.8 as=0.0864 ps=0.91 w=0.64 l=0.15
X53 a_13740_43697# a_14032_43997# a_13983_44089# VDPWR.t3 sky130_fd_pr__pfet_01v8_hvt ad=0.0567 pd=0.69 as=0.0882 ps=0.84 w=0.42 l=0.15
X54 VAPWR.t19 ring_0/skullfet_inverter_13.A ring_0/skullfet_inverter_14.A VAPWR.t18 sky130_fd_pr__pfet_g5v0d10v5 ad=5.3775 pd=12.07 as=7.5825 ps=29.53 w=4.5 l=0.5
X55 VGND.t21 ring_0/skullfet_inverter_1.A ring_0/skullfet_inverter_2.A VGND.t20 sky130_fd_pr__nfet_g5v0d10v5 ad=5.1075 pd=11.95 as=7.8525 ps=29.65 w=4.5 l=0.5
X56 a_12028_43723# a_11536_43697# VGND.t45 VGND.t44 sky130_fd_pr__nfet_01v8 ad=0.066 pd=0.745 as=0.1092 ps=1.36 w=0.42 l=0.15
X57 skullfet_level_shifter.A ring_0/skullfet_inverter_7.A VAPWR.t15 VAPWR.t14 sky130_fd_pr__pfet_g5v0d10v5 ad=7.5825 pd=29.53 as=5.3775 ps=12.07 w=4.5 l=0.5
X58 a_10517_43723# a_10297_43723# VGND.t71 VGND.t70 sky130_fd_pr__nfet_01v8 ad=0.0696 pd=0.765 as=0.12095 ps=1.085 w=0.42 l=0.15
X59 VAPWR.t13 ring_0/skullfet_inverter_18.A ring_0/skullfet_inverter_19.A VAPWR.t12 sky130_fd_pr__pfet_g5v0d10v5 ad=5.3775 pd=12.07 as=7.5825 ps=29.53 w=4.5 l=0.5
X60 VGND.t33 ring_0/skullfet_inverter_5.A ring_0/skullfet_inverter_6.A VGND.t32 sky130_fd_pr__nfet_g5v0d10v5 ad=5.1075 pd=11.95 as=7.8525 ps=29.65 w=4.5 l=0.5
X61 a_9604_43697# a_9876_43697# VGND.t64 VGND.t63 sky130_fd_pr__nfet_01v8 ad=0.169 pd=1.82 as=0.08775 ps=0.92 w=0.65 l=0.15
X62 VGND.t58 freq_divider_0.sky130_fd_sc_hd__dfxbp_1_1.Q_N a_14579_43723# VGND.t9 sky130_fd_pr__nfet_01v8 ad=0.1092 pd=1.36 as=0.0813 ps=0.83 w=0.42 l=0.15
X63 a_12093_43697# uo_out[1].t3 VGND.t22 VGND.t9 sky130_fd_pr__nfet_01v8 ad=0.1092 pd=1.36 as=0.0567 ps=0.69 w=0.42 l=0.15
X64 VAPWR.t25 ring_0/skullfet_inverter_15.A ring_0/skullfet_inverter_16.A VAPWR.t24 sky130_fd_pr__pfet_g5v0d10v5 ad=5.3775 pd=12.07 as=7.5825 ps=29.53 w=4.5 l=0.5
X65 a_12449_43723# a_12229_43723# VGND.t17 VGND.t9 sky130_fd_pr__nfet_01v8 ad=0.0696 pd=0.765 as=0.12095 ps=1.085 w=0.42 l=0.15
X66 VGND.t43 a_11536_43697# uo_out[2].t0 VGND.t42 sky130_fd_pr__nfet_01v8 ad=0.08775 pd=0.92 as=0.169 ps=1.82 w=0.65 l=0.15
X67 VGND.t85 a_9509_43697# freq_divider_0.sky130_fd_sc_hd__dfxbp_1_3.Q_N VGND.t84 sky130_fd_pr__nfet_01v8 ad=0.097 pd=0.975 as=0.169 ps=1.82 w=0.65 l=0.15
X68 VGND.t77 ring_0/skullfet_inverter_3.A ring_0/skullfet_inverter_4.A VGND.t76 sky130_fd_pr__nfet_g5v0d10v5 ad=5.1075 pd=11.95 as=7.8525 ps=29.65 w=4.5 l=0.5
X69 VGND.t37 a_12300_43697# a_12229_43723# VGND.t4 sky130_fd_pr__nfet_01v8 ad=0.12095 pd=1.085 as=0.0989 ps=0.995 w=0.64 l=0.15
X70 a_10715_43723# a_10168_43997# a_10368_43697# VDPWR.t27 sky130_fd_pr__pfet_01v8_hvt ad=0.05775 pd=0.695 as=0.06825 ps=0.745 w=0.42 l=0.15
X71 a_9604_43697# a_9876_43697# VDPWR.t49 VDPWR.t48 sky130_fd_pr__pfet_01v8_hvt ad=0.27 pd=2.54 as=0.135 ps=1.27 w=1 l=0.15
X72 a_11536_43697# a_11808_43697# VDPWR.t19 VDPWR.t18 sky130_fd_pr__pfet_01v8_hvt ad=0.27 pd=2.54 as=0.135 ps=1.27 w=1 l=0.15
X73 a_13373_43697# a_13468_43697# VGND.t67 VGND.t9 sky130_fd_pr__nfet_01v8 ad=0.1092 pd=1.36 as=0.097 ps=0.975 w=0.42 l=0.15
X74 a_14408_44089# a_14161_43723# VDPWR.t5 VDPWR.t4 sky130_fd_pr__pfet_01v8_hvt ad=0.07665 pd=0.785 as=0.178875 ps=1.26 w=0.42 l=0.15
X75 VGND.t27 ring_0/skullfet_inverter_7.A skullfet_level_shifter.A VGND.t26 sky130_fd_pr__nfet_g5v0d10v5 ad=5.1075 pd=11.95 as=7.8525 ps=29.65 w=4.5 l=0.5
X76 VGND.t75 a_10161_43697# a_10168_43997# VGND.t74 sky130_fd_pr__nfet_01v8 ad=0.0567 pd=0.69 as=0.1092 ps=1.36 w=0.42 l=0.15
X77 a_10096_43723# a_9604_43697# VGND.t93 VGND.t92 sky130_fd_pr__nfet_01v8 ad=0.066 pd=0.745 as=0.1092 ps=1.36 w=0.42 l=0.15
X78 VDPWR.t33 a_11536_43697# uo_out[2].t1 VDPWR.t32 sky130_fd_pr__pfet_01v8_hvt ad=0.135 pd=1.27 as=0.26 ps=2.52 w=1 l=0.15
X79 VDPWR.t73 a_13373_43697# freq_divider_0.sky130_fd_sc_hd__dfxbp_1_1.Q_N VDPWR.t72 sky130_fd_pr__pfet_01v8_hvt ad=0.154 pd=1.335 as=0.26 ps=2.52 w=1 l=0.15
X80 VDPWR.t47 freq_divider_0.sky130_fd_sc_hd__dfxbp_1_1.Q_N a_14579_43723# VDPWR.t46 sky130_fd_pr__pfet_01v8_hvt ad=0.1092 pd=1.36 as=0.05775 ps=0.695 w=0.42 l=0.15
X81 VGND.t47 a_12093_43697# a_12100_43997# VGND.t9 sky130_fd_pr__nfet_01v8 ad=0.0567 pd=0.69 as=0.1092 ps=1.36 w=0.42 l=0.15
X82 a_14579_43723# a_14025_43697# a_14232_43697# VGND.t6 sky130_fd_pr__special_nfet_01v8 ad=0.0813 pd=0.83 as=0.0621 ps=0.705 w=0.36 l=0.15
X83 a_14161_43723# a_14032_43997# a_13740_43697# VGND.t6 sky130_fd_pr__special_nfet_01v8 ad=0.0989 pd=0.995 as=0.0684 ps=0.74 w=0.36 l=0.15
X84 a_11808_43697# a_12100_43997# a_12051_44089# VDPWR.t24 sky130_fd_pr__pfet_01v8_hvt ad=0.0567 pd=0.69 as=0.0882 ps=0.84 w=0.42 l=0.15
X85 VAPWR.t39 ring_0/skullfet_inverter_17.A ring_0/skullfet_inverter_18.A VAPWR.t38 sky130_fd_pr__pfet_g5v0d10v5 ad=5.3775 pd=12.07 as=7.5825 ps=29.53 w=4.5 l=0.5
X86 a_10161_43697# uo_out[2].t3 VGND.t19 VGND.t18 sky130_fd_pr__nfet_01v8 ad=0.1092 pd=1.36 as=0.0567 ps=0.69 w=0.42 l=0.15
X87 VAPWR.t37 ring_0/skullfet_inverter_16.A ring_0/skullfet_inverter_17.A VAPWR.t36 sky130_fd_pr__pfet_g5v0d10v5 ad=5.3775 pd=12.07 as=7.5825 ps=29.53 w=4.5 l=0.5
X88 a_10368_43697# a_10168_43997# a_10517_43723# VGND.t35 sky130_fd_pr__special_nfet_01v8 ad=0.0621 pd=0.705 as=0.0696 ps=0.765 w=0.36 l=0.15
X89 a_11536_43697# a_11808_43697# VGND.t29 VGND.t28 sky130_fd_pr__nfet_01v8 ad=0.169 pd=1.82 as=0.08775 ps=0.92 w=0.65 l=0.15
X90 VGND.t39 a_10368_43697# a_10297_43723# VGND.t38 sky130_fd_pr__nfet_01v8 ad=0.12095 pd=1.085 as=0.0989 ps=0.995 w=0.64 l=0.15
X91 a_12300_43697# a_12100_43997# a_12449_43723# VGND.t6 sky130_fd_pr__special_nfet_01v8 ad=0.0621 pd=0.705 as=0.0696 ps=0.765 w=0.36 l=0.15
X92 a_11808_43697# a_12093_43697# a_12028_43723# VGND.t46 sky130_fd_pr__special_nfet_01v8 ad=0.0684 pd=0.74 as=0.066 ps=0.745 w=0.36 l=0.15
X93 ring_0/skullfet_inverter_1.A ring_0/skullfet_inverter_20.Y VAPWR.t5 VAPWR.t4 sky130_fd_pr__pfet_g5v0d10v5 ad=7.5825 pd=29.53 as=5.3775 ps=12.07 w=4.5 l=0.5
X94 VDPWR.t7 skullfet_level_shifter.A uo_out[0].t1 VDPWR.t6 sky130_fd_pr__pfet_g5v0d10v5 ad=5.3775 pd=12.07 as=7.5825 ps=29.53 w=4.5 l=0.5
X95 a_13373_43697# a_13468_43697# VDPWR.t53 VDPWR.t52 sky130_fd_pr__pfet_01v8_hvt ad=0.1664 pd=1.8 as=0.154 ps=1.335 w=0.64 l=0.15
X96 VDPWR.t1 a_14232_43697# a_14161_43723# VDPWR.t0 sky130_fd_pr__pfet_01v8_hvt ad=0.178875 pd=1.26 as=0.1095 ps=1.075 w=0.75 l=0.15
X97 a_13740_43697# a_14025_43697# a_13960_43723# VGND.t6 sky130_fd_pr__special_nfet_01v8 ad=0.0684 pd=0.74 as=0.066 ps=0.745 w=0.36 l=0.15
X98 a_10297_43723# a_10161_43697# a_9876_43697# VDPWR.t58 sky130_fd_pr__pfet_01v8_hvt ad=0.1095 pd=1.075 as=0.0567 ps=0.69 w=0.42 l=0.15
X99 a_11441_43697# a_11536_43697# VGND.t41 VGND.t40 sky130_fd_pr__nfet_01v8 ad=0.1092 pd=1.36 as=0.097 ps=0.975 w=0.42 l=0.15
X100 a_12476_44089# a_12229_43723# VDPWR.t9 VDPWR.t8 sky130_fd_pr__pfet_01v8_hvt ad=0.07665 pd=0.785 as=0.178875 ps=1.26 w=0.42 l=0.15
X101 a_12229_43723# a_12100_43997# a_11808_43697# VGND.t34 sky130_fd_pr__special_nfet_01v8 ad=0.0989 pd=0.995 as=0.0684 ps=0.74 w=0.36 l=0.15
X102 a_12229_43723# a_12093_43697# a_11808_43697# VDPWR.t39 sky130_fd_pr__pfet_01v8_hvt ad=0.1095 pd=1.075 as=0.0567 ps=0.69 w=0.42 l=0.15
X103 a_12300_43697# a_12093_43697# a_12476_44089# VDPWR.t38 sky130_fd_pr__pfet_01v8_hvt ad=0.06825 pd=0.745 as=0.07665 ps=0.785 w=0.42 l=0.15
X104 ring_0/skullfet_inverter_12.A ring_0/skullfet_inverter_11.A VAPWR.t9 VAPWR.t8 sky130_fd_pr__pfet_g5v0d10v5 ad=7.5825 pd=29.53 as=5.3775 ps=12.07 w=4.5 l=0.5
X105 a_10715_43723# a_10161_43697# a_10368_43697# VGND.t73 sky130_fd_pr__special_nfet_01v8 ad=0.0813 pd=0.83 as=0.0621 ps=0.705 w=0.36 l=0.15
X106 VDPWR.t43 a_11441_43697# freq_divider_0.sky130_fd_sc_hd__dfxbp_1_2.Q_N VDPWR.t42 sky130_fd_pr__pfet_01v8_hvt ad=0.154 pd=1.335 as=0.26 ps=2.52 w=1 l=0.15
X107 VGND.t8 ring_0/skullfet_inverter_20.Y ring_0/skullfet_inverter_1.A VGND.t7 sky130_fd_pr__nfet_g5v0d10v5 ad=5.1075 pd=11.95 as=7.8525 ps=29.65 w=4.5 l=0.5
X108 VGND.t12 skullfet_level_shifter.A ring_0/skullfet_inverter_9.A VGND.t11 sky130_fd_pr__nfet_g5v0d10v5 ad=5.1075 pd=11.95 as=7.8525 ps=29.65 w=4.5 l=0.5
X109 VGND.t98 a_13373_43697# freq_divider_0.sky130_fd_sc_hd__dfxbp_1_1.Q_N VGND.t56 sky130_fd_pr__nfet_01v8 ad=0.097 pd=0.975 as=0.169 ps=1.82 w=0.65 l=0.15
X110 a_9509_43697# a_9604_43697# VGND.t91 VGND.t90 sky130_fd_pr__nfet_01v8 ad=0.1092 pd=1.36 as=0.097 ps=0.975 w=0.42 l=0.15
X111 VGND.t79 freq_divider_0.sky130_fd_sc_hd__dfxbp_1_3.Q_N a_10715_43723# VGND.t78 sky130_fd_pr__nfet_01v8 ad=0.1092 pd=1.36 as=0.0813 ps=0.83 w=0.42 l=0.15
X112 a_12647_43723# a_12093_43697# a_12300_43697# VGND.t6 sky130_fd_pr__special_nfet_01v8 ad=0.0813 pd=0.83 as=0.0621 ps=0.705 w=0.36 l=0.15
X113 a_9876_43697# a_10168_43997# a_10119_44089# VDPWR.t26 sky130_fd_pr__pfet_01v8_hvt ad=0.0567 pd=0.69 as=0.0882 ps=0.84 w=0.42 l=0.15
X114 ring_0/skullfet_inverter_5.A ring_0/skullfet_inverter_4.A VAPWR.t29 VAPWR.t28 sky130_fd_pr__pfet_g5v0d10v5 ad=7.5825 pd=29.53 as=5.3775 ps=12.07 w=4.5 l=0.5
X115 a_14381_43723# a_14161_43723# VGND.t10 VGND.t9 sky130_fd_pr__nfet_01v8 ad=0.0696 pd=0.765 as=0.12095 ps=1.085 w=0.42 l=0.15
X116 VGND.t25 freq_divider_0.sky130_fd_sc_hd__dfxbp_1_2.Q_N a_12647_43723# VGND.t9 sky130_fd_pr__nfet_01v8 ad=0.1092 pd=1.36 as=0.0813 ps=0.83 w=0.42 l=0.15
X117 a_14579_43723# a_14032_43997# a_14232_43697# VDPWR.t2 sky130_fd_pr__pfet_01v8_hvt ad=0.05775 pd=0.695 as=0.06825 ps=0.745 w=0.42 l=0.15
X118 ring_0/skullfet_inverter_20.A ring_0/skullfet_inverter_19.A VGND.t53 VGND.t52 sky130_fd_pr__nfet_g5v0d10v5 ad=7.8525 pd=29.65 as=5.1075 ps=11.95 w=4.5 l=0.5
X119 ring_0/skullfet_inverter_11.A ring_0/skullfet_inverter_10.A VAPWR.t1 VAPWR.t0 sky130_fd_pr__pfet_g5v0d10v5 ad=7.5825 pd=29.53 as=5.3775 ps=12.07 w=4.5 l=0.5
X120 VDPWR.t31 a_10368_43697# a_10297_43723# VDPWR.t30 sky130_fd_pr__pfet_01v8_hvt ad=0.178875 pd=1.26 as=0.1095 ps=1.075 w=0.75 l=0.15
X121 a_9876_43697# a_10161_43697# a_10096_43723# VGND.t72 sky130_fd_pr__special_nfet_01v8 ad=0.0684 pd=0.74 as=0.066 ps=0.745 w=0.36 l=0.15
X122 ring_0/skullfet_inverter_10.A ring_0/skullfet_inverter_9.A VAPWR.t3 VAPWR.t2 sky130_fd_pr__pfet_g5v0d10v5 ad=7.5825 pd=29.53 as=5.3775 ps=12.07 w=4.5 l=0.5
X123 a_14025_43697# uo_out[0].t3 VDPWR.t15 VDPWR.t14 sky130_fd_pr__pfet_01v8_hvt ad=0.1664 pd=1.8 as=0.0864 ps=0.91 w=0.64 l=0.15
X124 a_13983_44089# a_13468_43697# VDPWR.t51 VDPWR.t50 sky130_fd_pr__pfet_01v8_hvt ad=0.0882 pd=0.84 as=0.1113 ps=1.37 w=0.42 l=0.15
X125 ring_0/skullfet_inverter_15.A ring_0/skullfet_inverter_14.A VGND.t97 VGND.t96 sky130_fd_pr__nfet_g5v0d10v5 ad=7.8525 pd=29.65 as=5.1075 ps=11.95 w=4.5 l=0.5
X126 VDPWR.t29 a_12300_43697# a_12229_43723# VDPWR.t28 sky130_fd_pr__pfet_01v8_hvt ad=0.178875 pd=1.26 as=0.1095 ps=1.075 w=0.75 l=0.15
X127 VDPWR.t21 a_14025_43697# a_14032_43997# VDPWR.t20 sky130_fd_pr__pfet_01v8_hvt ad=0.0864 pd=0.91 as=0.1664 ps=1.8 w=0.64 l=0.15
R0 VAPWR.n52 VAPWR.t19 738.799
R1 VAPWR.n54 VAPWR.t35 738.799
R2 VAPWR.n38 VAPWR.t23 738.799
R3 VAPWR.n34 VAPWR.t21 738.799
R4 VAPWR.n6 VAPWR.t11 738.799
R5 VAPWR.n41 VAPWR.t13 738.799
R6 VAPWR.n44 VAPWR.t39 738.799
R7 VAPWR.n47 VAPWR.t37 738.799
R8 VAPWR.n4 VAPWR.t25 738.799
R9 VAPWR.n2 VAPWR.t41 738.799
R10 VAPWR.n60 VAPWR.t1 738.799
R11 VAPWR.n57 VAPWR.t9 738.799
R12 VAPWR.n32 VAPWR.t5 738.799
R13 VAPWR.n7 VAPWR.t33 738.799
R14 VAPWR.n11 VAPWR.t17 738.799
R15 VAPWR.n22 VAPWR.t27 738.799
R16 VAPWR.n19 VAPWR.t15 738.799
R17 VAPWR.n16 VAPWR.t7 738.799
R18 VAPWR.n13 VAPWR.t3 738.799
R19 VAPWR.n9 VAPWR.t29 738.799
R20 VAPWR.n27 VAPWR.t31 738.799
R21 VAPWR.n60 VAPWR.t0 707.519
R22 VAPWR.n57 VAPWR.t8 707.519
R23 VAPWR.n52 VAPWR.t18 707.519
R24 VAPWR.n54 VAPWR.t34 707.519
R25 VAPWR.n38 VAPWR.t22 707.519
R26 VAPWR.n34 VAPWR.t20 707.519
R27 VAPWR.n32 VAPWR.t4 707.519
R28 VAPWR.n6 VAPWR.t10 707.519
R29 VAPWR.n7 VAPWR.t32 707.519
R30 VAPWR.n11 VAPWR.t16 707.519
R31 VAPWR.n22 VAPWR.t26 707.519
R32 VAPWR.n19 VAPWR.t14 707.519
R33 VAPWR.n16 VAPWR.t6 707.519
R34 VAPWR.n13 VAPWR.t2 707.519
R35 VAPWR.n9 VAPWR.t28 707.519
R36 VAPWR.n27 VAPWR.t30 707.519
R37 VAPWR.n41 VAPWR.t12 707.519
R38 VAPWR.n44 VAPWR.t38 707.519
R39 VAPWR.n47 VAPWR.t36 707.519
R40 VAPWR.n4 VAPWR.t24 707.519
R41 VAPWR.n2 VAPWR.t40 707.519
R42 VAPWR.n61 VAPWR.n60 13.3797
R43 VAPWR.n58 VAPWR.n57 13.3797
R44 VAPWR.n33 VAPWR.n32 13.3797
R45 VAPWR.n8 VAPWR.n7 13.3797
R46 VAPWR.n12 VAPWR.n11 13.3797
R47 VAPWR.n23 VAPWR.n22 13.3797
R48 VAPWR.n20 VAPWR.n19 13.3797
R49 VAPWR.n17 VAPWR.n16 13.3797
R50 VAPWR.n14 VAPWR.n13 13.3797
R51 VAPWR.n10 VAPWR.n9 13.3797
R52 VAPWR.n28 VAPWR.n27 13.3797
R53 VAPWR.n53 VAPWR.n52 13.3223
R54 VAPWR VAPWR.n54 13.3223
R55 VAPWR.n39 VAPWR.n38 13.3223
R56 VAPWR.n35 VAPWR.n34 13.3223
R57 VAPWR VAPWR.n6 13.3223
R58 VAPWR.n42 VAPWR.n41 13.3223
R59 VAPWR.n45 VAPWR.n44 13.3223
R60 VAPWR.n48 VAPWR.n47 13.3223
R61 VAPWR.n5 VAPWR.n4 13.3223
R62 VAPWR.n3 VAPWR.n2 13.3223
R63 VAPWR.n59 VAPWR.n58 9.70762
R64 VAPWR.n18 VAPWR.n15 9.45042
R65 VAPWR.n31 VAPWR 8.52916
R66 VAPWR.n62 VAPWR.n61 7.92611
R67 VAPWR.n40 VAPWR.n37 7.71912
R68 VAPWR.n15 VAPWR.n14 7.71771
R69 VAPWR.n31 VAPWR.n30 7.41572
R70 VAPWR.n55 VAPWR 7.13154
R71 VAPWR.n40 VAPWR.n39 7.11663
R72 VAPWR.n18 VAPWR.n17 7.10884
R73 VAPWR.n43 VAPWR.n42 6.89753
R74 VAPWR.n21 VAPWR.n20 6.54898
R75 VAPWR.n49 VAPWR.n46 6.23852
R76 VAPWR.n30 VAPWR.n8 6.19396
R77 VAPWR.n46 VAPWR.n45 6.10554
R78 VAPWR.n29 VAPWR.n28 6.01845
R79 VAPWR.n36 VAPWR.n35 5.92055
R80 VAPWR.n49 VAPWR.n48 5.84717
R81 VAPWR.n24 VAPWR.n23 5.78073
R82 VAPWR.n26 VAPWR.n10 5.73072
R83 VAPWR.n50 VAPWR.n5 5.60146
R84 VAPWR.n51 VAPWR.n3 5.59565
R85 VAPWR.n25 VAPWR.n12 5.50466
R86 VAPWR.n55 VAPWR.n53 4.89777
R87 VAPWR.n36 VAPWR.n33 4.86074
R88 VAPWR.n46 VAPWR.n43 4.01511
R89 VAPWR.n66 VAPWR 3.49767
R90 VAPWR.n67 VAPWR 3.44936
R91 VAPWR.n37 VAPWR.n36 2.91269
R92 VAPWR.n59 VAPWR.n56 2.82184
R93 VAPWR.n1 VAPWR.n0 1.63622
R94 VAPWR.n24 VAPWR.n21 1.36014
R95 VAPWR.n30 VAPWR.n29 1.34127
R96 VAPWR.n56 VAPWR.n51 1.32921
R97 VAPWR.n56 VAPWR.n55 1.313
R98 VAPWR.n63 VAPWR.n0 1.29727
R99 VAPWR.n29 VAPWR.n26 1.10191
R100 VAPWR.n51 VAPWR.n50 0.940035
R101 VAPWR.n62 VAPWR.n59 0.85748
R102 VAPWR.n37 VAPWR.n31 0.767594
R103 VAPWR.n66 VAPWR.n65 0.616014
R104 VAPWR.n25 VAPWR.n24 0.52495
R105 VAPWR.n43 VAPWR.n40 0.514977
R106 VAPWR.n15 VAPWR.n1 0.507476
R107 VAPWR.n26 VAPWR.n25 0.505442
R108 VAPWR.n21 VAPWR.n18 0.500622
R109 VAPWR.n50 VAPWR.n49 0.483622
R110 VAPWR.n65 VAPWR.n0 0.20333
R111 VAPWR VAPWR.n67 0.193138
R112 VAPWR.n61 VAPWR 0.057877
R113 VAPWR.n58 VAPWR 0.057877
R114 VAPWR.n33 VAPWR 0.057877
R115 VAPWR.n8 VAPWR 0.057877
R116 VAPWR.n12 VAPWR 0.057877
R117 VAPWR.n23 VAPWR 0.057877
R118 VAPWR.n20 VAPWR 0.057877
R119 VAPWR.n17 VAPWR 0.057877
R120 VAPWR.n14 VAPWR 0.057877
R121 VAPWR.n10 VAPWR 0.057877
R122 VAPWR.n28 VAPWR 0.057877
R123 VAPWR.n53 VAPWR 0.0496071
R124 VAPWR.n39 VAPWR 0.0496071
R125 VAPWR.n35 VAPWR 0.0496071
R126 VAPWR.n42 VAPWR 0.0496071
R127 VAPWR.n45 VAPWR 0.0496071
R128 VAPWR.n48 VAPWR 0.0496071
R129 VAPWR.n5 VAPWR 0.0496071
R130 VAPWR.n3 VAPWR 0.0496071
R131 VAPWR.n65 VAPWR.n64 0.0335189
R132 VAPWR.n64 VAPWR.n1 0.00474612
R133 VAPWR.n63 VAPWR.n62 0.00305102
R134 VAPWR.n64 VAPWR.n63 0.00285849
R135 VAPWR.n67 VAPWR.n66 0.0018126
R136 VGND.n194 VGND.n193 101372
R137 VGND.n141 VGND.n140 97829.8
R138 VGND.n452 VGND.n9 64989.2
R139 VGND.n232 VGND.n144 63317.7
R140 VGND.n196 VGND.n173 51969.6
R141 VGND.n286 VGND.n285 50528.4
R142 VGND.n238 VGND.n145 49981.2
R143 VGND.n236 VGND.t0 48989.1
R144 VGND.n195 VGND.n153 48956.8
R145 VGND.n116 VGND.n14 46397.1
R146 VGND.n242 VGND.n240 34056.2
R147 VGND.n285 VGND.t61 32820.9
R148 VGND.n201 VGND.n196 31013.9
R149 VGND.n410 VGND.n26 29705.2
R150 VGND.n238 VGND.n146 26125.9
R151 VGND.n236 VGND.n235 24501.8
R152 VGND.n233 VGND.n146 22668.4
R153 VGND.n195 VGND.n194 20954.6
R154 VGND.n140 VGND.n26 20954.6
R155 VGND.n237 VGND.n12 18294.4
R156 VGND.t84 VGND.n14 14642.2
R157 VGND.n196 VGND.n195 13862.9
R158 VGND.n285 VGND.n26 13853.3
R159 VGND.n181 VGND.n177 12938.5
R160 VGND.n236 VGND.n146 10983.3
R161 VGND.n116 VGND.n115 10461.7
R162 VGND.n232 VGND.t48 8761.83
R163 VGND.n234 VGND.n233 8254.98
R164 VGND.n175 VGND.n173 8219.71
R165 VGND.n140 VGND.n9 8171.07
R166 VGND.n194 VGND.n144 8164.43
R167 VGND.n453 VGND.n452 8158.04
R168 VGND.n452 VGND.n12 8007.21
R169 VGND.n233 VGND.n232 8000.6
R170 VGND.n143 VGND.n139 7798.05
R171 VGND.n116 VGND 7183.82
R172 VGND.n238 VGND.n144 6658.85
R173 VGND.n12 VGND.n11 6298.11
R174 VGND.n180 VGND.n177 5767.96
R175 VGND.n232 VGND.n153 5608.83
R176 VGND.n284 VGND.n141 5496.81
R177 VGND.n409 VGND.n408 5446.6
R178 VGND.n182 VGND.n181 5163.17
R179 VGND.n240 VGND.n9 4690.48
R180 VGND.n235 VGND.n147 4323.23
R181 VGND.n150 VGND.n12 4311.21
R182 VGND.n286 VGND.n284 4138.55
R183 VGND.n193 VGND.n192 3936.62
R184 VGND.n241 VGND.n141 3888.93
R185 VGND.n192 VGND.n145 3732.38
R186 VGND.n190 VGND.n177 3431.95
R187 VGND.n181 VGND.n143 3199.08
R188 VGND.n239 VGND.n143 3097.77
R189 VGND.n238 VGND.n237 3097.77
R190 VGND.n191 VGND.n176 3043.22
R191 VGND.n180 VGND.n179 3033.4
R192 VGND.t80 VGND.n139 2956.47
R193 VGND.n242 VGND.n241 2771.85
R194 VGND.n152 VGND.n150 2374.28
R195 VGND.n150 VGND.n149 2325.64
R196 VGND.n193 VGND.t23 2293.69
R197 VGND.n452 VGND.n13 2139.51
R198 VGND.t48 VGND.n231 2108.34
R199 VGND.n191 VGND.n143 2021.45
R200 VGND.t7 VGND.n180 1675.99
R201 VGND.n11 VGND.t2 1523.34
R202 VGND.n453 VGND.t11 1523.34
R203 VGND.n176 VGND.t52 1523.34
R204 VGND.n286 VGND.n139 1501.79
R205 VGND.n191 VGND.n173 1498.22
R206 VGND.n141 VGND.t76 1467.82
R207 VGND.n193 VGND.n175 1415.65
R208 VGND.t96 VGND.n153 1206.01
R209 VGND.n414 VGND.n413 1198.25
R210 VGND.n412 VGND.n24 1198.25
R211 VGND.n242 VGND.t80 1186.75
R212 VGND.n192 VGND.n191 1105.93
R213 VGND.n292 VGND.t32 958.28
R214 VGND.n243 VGND.n242 921.593
R215 VGND.n182 VGND.t7 912.855
R216 VGND.t88 VGND.n203 905.449
R217 VGND.t59 VGND.n198 842.21
R218 VGND.t92 VGND.t63 809.293
R219 VGND.t94 VGND.t90 800.774
R220 VGND.n241 VGND.n139 754.139
R221 VGND.n451 VGND.n14 613.852
R222 VGND.n115 VGND.n114 595.942
R223 VGND.t65 VGND.n286 592.851
R224 VGND.n198 VGND.n197 585
R225 VGND.n200 VGND.n199 585
R226 VGND.n451 VGND.n450 585
R227 VGND.n11 VGND.n10 585
R228 VGND.n149 VGND.n148 585
R229 VGND.n152 VGND.n151 585
R230 VGND.n454 VGND.n453 585
R231 VGND.n335 VGND.n13 585
R232 VGND.n293 VGND.n292 585
R233 VGND.n291 VGND.n290 585
R234 VGND.n408 VGND.n407 585
R235 VGND.n284 VGND.n283 585
R236 VGND.n175 VGND.n174 585
R237 VGND.n203 VGND.n202 585
R238 VGND.n205 VGND.n204 585
R239 VGND.n186 VGND.n176 585
R240 VGND.n190 VGND.n189 585
R241 VGND.n183 VGND.n182 585
R242 VGND.n179 VGND.n178 585
R243 VGND.n149 VGND.t0 574.539
R244 VGND.t86 VGND.n201 533.332
R245 VGND.n408 VGND.t61 489.839
R246 VGND.n204 VGND.n173 489.707
R247 VGND.t36 VGND.t72 451.5
R248 VGND.t38 VGND.t36 430.204
R249 VGND.t82 VGND.n234 424.175
R250 VGND.t72 VGND.t92 404.647
R251 VGND.t90 VGND.t84 404.647
R252 VGND.n201 VGND.n200 382.728
R253 VGND.n411 VGND.t38 370.572
R254 VGND.t15 VGND.n152 362.452
R255 VGND.t52 VGND.n145 360.884
R256 VGND.t63 VGND.t94 357.793
R257 VGND.n452 VGND.t13 313.435
R258 VGND.n183 VGND.t8 282.13
R259 VGND.n243 VGND.t81 282.13
R260 VGND.n407 VGND.t62 282.13
R261 VGND.n148 VGND.t1 282.13
R262 VGND.n10 VGND.t3 282.13
R263 VGND.n151 VGND.t16 282.13
R264 VGND.n454 VGND.t12 282.13
R265 VGND.n335 VGND.t27 282.13
R266 VGND.n290 VGND.t33 282.13
R267 VGND.n293 VGND.t66 282.13
R268 VGND.n283 VGND.t77 282.13
R269 VGND.n450 VGND.t14 281.841
R270 VGND.n231 VGND.t49 281.839
R271 VGND.n199 VGND.t60 281.839
R272 VGND.n197 VGND.t97 281.839
R273 VGND.n186 VGND.t53 281.839
R274 VGND.n189 VGND.t51 281.839
R275 VGND.n147 VGND.t83 281.839
R276 VGND.n178 VGND.t21 281.839
R277 VGND.n174 VGND.t24 281.839
R278 VGND.n205 VGND.t89 281.839
R279 VGND.n202 VGND.t87 281.839
R280 VGND.n237 VGND.n236 264.286
R281 VGND.n90 VGND.t45 251
R282 VGND.n57 VGND.t68 251
R283 VGND.n437 VGND.t93 251
R284 VGND.n234 VGND.t15 245.631
R285 VGND.n104 VGND.t25 243.028
R286 VGND.n44 VGND.t58 243.028
R287 VGND.n424 VGND.t79 243.028
R288 VGND.n411 VGND.t26 232.994
R289 VGND.n77 VGND.n76 218.506
R290 VGND.n59 VGND.n58 218.506
R291 VGND.n439 VGND.n438 218.506
R292 VGND.t13 VGND.n451 212.357
R293 VGND.n239 VGND.n238 209.014
R294 VGND.n80 VGND.n79 200.201
R295 VGND.n66 VGND.n30 200.201
R296 VGND.n447 VGND.n446 200.201
R297 VGND.n108 VGND.n70 199.739
R298 VGND.n40 VGND.n39 199.739
R299 VGND.n420 VGND.n419 199.739
R300 VGND.n98 VGND.n97 199.53
R301 VGND.n50 VGND.n35 199.53
R302 VGND.n430 VGND.n21 199.53
R303 VGND.t26 VGND.n13 196.702
R304 VGND.n409 VGND.n116 165.179
R305 VGND.n292 VGND.t65 162.868
R306 VGND.t32 VGND.n291 162.868
R307 VGND.n204 VGND.t88 153.888
R308 VGND.n203 VGND.t86 153.888
R309 VGND.n200 VGND.t59 151.095
R310 VGND.n198 VGND.t96 151.095
R311 VGND.n191 VGND.t50 130.082
R312 VGND.t20 VGND.n139 129.425
R313 VGND.t6 VGND 118.189
R314 VGND.t50 VGND.n190 99.8351
R315 VGND.n179 VGND.t20 99.332
R316 VGND.n97 VGND.t37 74.8666
R317 VGND.n35 VGND.t5 74.8666
R318 VGND.n21 VGND.t39 74.8666
R319 VGND.t28 VGND.t44 69.615
R320 VGND.t40 VGND.t42 68.8822
R321 VGND.t74 VGND.t78 68.8822
R322 VGND.n235 VGND.t82 54.4208
R323 VGND.n79 VGND.t41 54.2862
R324 VGND.n30 VGND.t67 54.2862
R325 VGND.n446 VGND.t91 54.2862
R326 VGND.n291 VGND.n116 53.7948
R327 VGND.t78 VGND.t73 41.0364
R328 VGND.n97 VGND.t17 40.0005
R329 VGND.n35 VGND.t10 40.0005
R330 VGND.n21 VGND.t71 40.0005
R331 VGND.t46 VGND.t34 38.838
R332 VGND.n70 VGND.t22 38.5719
R333 VGND.n70 VGND.t47 38.5719
R334 VGND.n39 VGND.t31 38.5719
R335 VGND.n39 VGND.t30 38.5719
R336 VGND.n419 VGND.t19 38.5719
R337 VGND.n419 VGND.t75 38.5719
R338 VGND.t73 VGND.t35 36.2733
R339 VGND.t35 VGND.t70 36.2733
R340 VGND.t44 VGND.t46 34.8077
R341 VGND.t54 VGND.t40 34.8077
R342 VGND.n86 VGND.n85 34.6358
R343 VGND.n85 VGND.n84 34.6358
R344 VGND.n96 VGND.n95 34.6358
R345 VGND.n95 VGND.n74 34.6358
R346 VGND.n91 VGND.n74 34.6358
R347 VGND.n103 VGND.n102 34.6358