* NGSPICE file created from tt_um_oscillating_bones.ext - technology: sky130A

.subckt tt_um_oscillating_bones clk ena rst_n ui_in[0] ui_in[1] ui_in[2] ui_in[3]
+ ui_in[4] ui_in[5] ui_in[6] ui_in[7] uio_in[0] uio_in[1] uio_in[2] uio_in[3] uio_in[4]
+ uio_in[5] uio_in[6] uio_in[7] uio_oe[0] uio_oe[1] uio_oe[2] uio_oe[3] uio_oe[4]
+ uio_oe[5] uio_oe[6] uio_oe[7] uio_out[0] uio_out[1] uio_out[2] uio_out[3] uio_out[4]
+ uio_out[5] uio_out[6] uio_out[7] uo_out[2] uo_out[4] uo_out[5] uo_out[6] uo_out[7]
+ VDPWR VGND uo_out[0] uo_out[1] uo_out[3]
X0 a_13289_43697# uo_out[2].t2 VDPWR.t73 VDPWR.t72 sky130_fd_pr__pfet_01v8_hvt ad=0.1664 pd=1.8 as=0.0864 ps=0.91 w=0.64 l=0.15
X1 a_16868_43697# a_17160_43997# a_17111_44089# VDPWR.t81 sky130_fd_pr__pfet_01v8_hvt ad=0.0567 pd=0.69 as=0.0882 ps=0.84 w=0.42 l=0.15
X2 a_16596_43697# a_16868_43697# VGND.t59 VGND.t25 sky130_fd_pr__nfet_01v8 ad=0.169 pd=1.82 as=0.08775 ps=0.92 w=0.65 l=0.15
X3 VDPWR.t77 a_12637_43697# freq_divider_0.sky130_fd_sc_hd__dfxbp_1_3.Q_N VDPWR.t76 sky130_fd_pr__pfet_01v8_hvt ad=0.154 pd=1.335 as=0.26 ps=2.52 w=1 l=0.15
X4 VGND.t76 uo_out[0].t2 ring_0/skullfet_inverter_6.A VGND.t75 sky130_fd_pr__nfet_01v8 ad=4.2687 pd=10.82 as=6.4314 ps=26.72 w=4.05 l=0.4
X5 a_17360_43697# a_17160_43997# a_17509_43723# VGND.t20 sky130_fd_pr__nfet_01v8 ad=0.0621 pd=0.705 as=0.0696 ps=0.765 w=0.36 l=0.15
X6 VGND.t70 a_14569_43697# freq_divider_0.sky130_fd_sc_hd__dfxbp_1_2.Q_N VGND.t6 sky130_fd_pr__nfet_01v8 ad=0.097 pd=0.975 as=0.169 ps=1.82 w=0.65 l=0.15
X7 VGND.t33 ring_0/skullfet_inverter_12.A ring_0/skullfet_inverter_13.A VGND.t32 sky130_fd_pr__nfet_01v8 ad=4.2687 pd=10.82 as=6.4314 ps=26.72 w=4.05 l=0.4
X8 a_15221_43697# uo_out[1].t2 VDPWR.t11 VDPWR.t10 sky130_fd_pr__pfet_01v8_hvt ad=0.1664 pd=1.8 as=0.0864 ps=0.91 w=0.64 l=0.15
X9 VDPWR.t75 freq_divider_0.sky130_fd_sc_hd__dfxbp_1_3.Q_N a_13843_43723# VDPWR.t74 sky130_fd_pr__pfet_01v8_hvt ad=0.1092 pd=1.36 as=0.05775 ps=0.695 w=0.42 l=0.15
X10 a_15179_44089# a_14664_43697# VDPWR.t35 VDPWR.t34 sky130_fd_pr__pfet_01v8_hvt ad=0.0882 pd=0.84 as=0.1113 ps=1.37 w=0.42 l=0.15
X11 VGND.t38 ring_0/skullfet_inverter_19.A ring_0/skullfet_inverter_20.A VGND.t37 sky130_fd_pr__nfet_01v8 ad=4.2687 pd=10.82 as=6.4314 ps=26.72 w=4.05 l=0.4
X12 ring_0/skullfet_inverter_6.A uo_out[0].t3 VDPWR.t39 VDPWR.t38 sky130_fd_pr__pfet_01v8 ad=6.2694 pd=26.64 as=4.4307 ps=10.9 w=4.05 l=0.4
X13 a_15577_43723# a_15357_43723# VGND.t41 VGND.t12 sky130_fd_pr__nfet_01v8 ad=0.0696 pd=0.765 as=0.12095 ps=1.085 w=0.42 l=0.15
X14 VGND.t30 a_14664_43697# uo_out[2].t0 VGND.t6 sky130_fd_pr__nfet_01v8 ad=0.08775 pd=0.92 as=0.169 ps=1.82 w=0.65 l=0.15
X15 VDPWR.t71 a_13289_43697# a_13296_43997# VDPWR.t70 sky130_fd_pr__pfet_01v8_hvt ad=0.0864 pd=0.91 as=0.1664 ps=1.8 w=0.64 l=0.15
X16 VGND.t74 a_15221_43697# a_15228_43997# VGND.t12 sky130_fd_pr__nfet_01v8 ad=0.0567 pd=0.69 as=0.1092 ps=1.36 w=0.42 l=0.15
X17 VGND.t52 ring_0/skullfet_inverter_2.A ring_0/skullfet_inverter_3.A VGND.t51 sky130_fd_pr__nfet_01v8 ad=4.2687 pd=10.82 as=6.4314 ps=26.72 w=4.05 l=0.4
X18 a_13843_43723# a_13296_43997# a_13496_43697# VDPWR.t99 sky130_fd_pr__pfet_01v8_hvt ad=0.05775 pd=0.695 as=0.06825 ps=0.745 w=0.42 l=0.15
X19 ring_0/skullfet_inverter_13.A ring_0/skullfet_inverter_12.A VDPWR.t43 VDPWR.t42 sky130_fd_pr__pfet_01v8 ad=6.2694 pd=26.64 as=4.4307 ps=10.9 w=4.05 l=0.4
X20 VGND.t73 ring_0/skullfet_inverter_7.A ring_0/skullfet_inverter_8.A VGND.t72 sky130_fd_pr__nfet_01v8 ad=4.2687 pd=10.82 as=6.4314 ps=26.72 w=4.05 l=0.4
X21 a_16501_43697# a_16596_43697# VGND.t27 VGND.t0 sky130_fd_pr__nfet_01v8 ad=0.1092 pd=1.36 as=0.097 ps=0.975 w=0.42 l=0.15
X22 a_12637_43697# a_12732_43697# VDPWR.t63 VDPWR.t62 sky130_fd_pr__pfet_01v8_hvt ad=0.1664 pd=1.8 as=0.154 ps=1.335 w=0.64 l=0.15
X23 ring_0/skullfet_inverter_16.A ring_0/skullfet_inverter_15.A VGND.t36 VGND.t35 sky130_fd_pr__nfet_01v8 ad=6.4314 pd=26.72 as=4.2687 ps=10.82 w=4.05 l=0.4
X24 VGND.t18 ring_0/skullfet_inverter_11.A ring_0/skullfet_inverter_12.A VGND.t17 sky130_fd_pr__nfet_01v8 ad=4.2687 pd=10.82 as=6.4314 ps=26.72 w=4.05 l=0.4
X25 a_17289_43723# a_17153_43697# a_16868_43697# VDPWR.t21 sky130_fd_pr__pfet_01v8_hvt ad=0.1095 pd=1.075 as=0.0567 ps=0.69 w=0.42 l=0.15
X26 a_13224_43723# a_12732_43697# VGND.t49 VGND.t12 sky130_fd_pr__nfet_01v8 ad=0.066 pd=0.745 as=0.1092 ps=1.36 w=0.42 l=0.15
X27 VDPWR.t33 a_14664_43697# uo_out[2].t1 VDPWR.t32 sky130_fd_pr__pfet_01v8_hvt ad=0.135 pd=1.27 as=0.26 ps=2.52 w=1 l=0.15
X28 ring_0/skullfet_inverter_15.A ring_0/skullfet_inverter_14.A VGND.t69 VGND.t68 sky130_fd_pr__nfet_01v8 ad=6.4314 pd=26.72 as=4.2687 ps=10.82 w=4.05 l=0.4
X29 VDPWR.t111 ring_0/skullfet_inverter_17.A ring_0/skullfet_inverter_18.A VDPWR.t110 sky130_fd_pr__pfet_01v8 ad=4.4307 pd=10.9 as=6.2694 ps=26.64 w=4.05 l=0.4
X30 VGND.t78 ring_0/skullfet_inverter_1.A ring_0/skullfet_inverter_2.A VGND.t77 sky130_fd_pr__nfet_01v8 ad=4.2687 pd=10.82 as=6.4314 ps=26.72 w=4.05 l=0.4
X31 a_17707_43723# a_17153_43697# a_17360_43697# VGND.t21 sky130_fd_pr__nfet_01v8 ad=0.0813 pd=0.83 as=0.0621 ps=0.705 w=0.36 l=0.15
X32 VGND.t16 ring_0/skullfet_inverter_20.Y ring_0/skullfet_inverter_1.A VGND.t15 sky130_fd_pr__nfet_01v8 ad=4.2687 pd=10.82 as=6.4314 ps=26.72 w=4.05 l=0.4
X33 a_15156_43723# a_14664_43697# VGND.t29 VGND.t12 sky130_fd_pr__nfet_01v8 ad=0.066 pd=0.745 as=0.1092 ps=1.36 w=0.42 l=0.15
X34 a_14936_43697# a_15228_43997# a_15179_44089# VDPWR.t37 sky130_fd_pr__pfet_01v8_hvt ad=0.0567 pd=0.69 as=0.0882 ps=0.84 w=0.42 l=0.15
X35 a_13289_43697# uo_out[2].t3 VGND.t54 VGND.t12 sky130_fd_pr__nfet_01v8 ad=0.1092 pd=1.36 as=0.0567 ps=0.69 w=0.42 l=0.15
X36 ring_0/skullfet_inverter_8.A ring_0/skullfet_inverter_7.A VDPWR.t103 VDPWR.t102 sky130_fd_pr__pfet_01v8 ad=6.2694 pd=26.64 as=4.4307 ps=10.9 w=4.05 l=0.4
X37 ring_0/skullfet_inverter_12.A ring_0/skullfet_inverter_11.A VDPWR.t17 VDPWR.t16 sky130_fd_pr__pfet_01v8 ad=6.2694 pd=26.64 as=4.4307 ps=10.9 w=4.05 l=0.4
X38 ring_0/skullfet_inverter_2.A ring_0/skullfet_inverter_1.A VDPWR.t109 VDPWR.t108 sky130_fd_pr__pfet_01v8 ad=6.2694 pd=26.64 as=4.4307 ps=10.9 w=4.05 l=0.4
X39 ring_0/skullfet_inverter_9.A ring_0/skullfet_inverter_8.A VDPWR.t57 VDPWR.t56 sky130_fd_pr__pfet_01v8 ad=6.2694 pd=26.64 as=4.4307 ps=10.9 w=4.05 l=0.4
X40 VGND.t14 freq_divider_0.sky130_fd_sc_hd__dfxbp_1_1.Q_N a_17707_43723# VGND.t4 sky130_fd_pr__nfet_01v8 ad=0.1092 pd=1.36 as=0.0813 ps=0.83 w=0.42 l=0.15
X41 a_14664_43697# a_14936_43697# VGND.t7 VGND.t6 sky130_fd_pr__nfet_01v8 ad=0.169 pd=1.82 as=0.08775 ps=0.92 w=0.65 l=0.15
X42 a_15428_43697# a_15228_43997# a_15577_43723# VGND.t31 sky130_fd_pr__nfet_01v8 ad=0.0621 pd=0.705 as=0.0696 ps=0.765 w=0.36 l=0.15
X43 VGND.t56 a_12637_43697# freq_divider_0.sky130_fd_sc_hd__dfxbp_1_3.Q_N VGND.t6 sky130_fd_pr__nfet_01v8 ad=0.097 pd=0.975 as=0.169 ps=1.82 w=0.65 l=0.15
X44 VGND.t71 a_13496_43697# a_13425_43723# VGND.t63 sky130_fd_pr__nfet_01v8 ad=0.12095 pd=1.085 as=0.0989 ps=0.995 w=0.64 l=0.15
X45 a_13247_44089# a_12732_43697# VDPWR.t61 VDPWR.t60 sky130_fd_pr__pfet_01v8_hvt ad=0.0882 pd=0.84 as=0.1113 ps=1.37 w=0.42 l=0.15
X46 a_15221_43697# uo_out[1].t3 VGND.t13 VGND.t12 sky130_fd_pr__nfet_01v8 ad=0.1092 pd=1.36 as=0.0567 ps=0.69 w=0.42 l=0.15
X47 a_16868_43697# a_17153_43697# a_17088_43723# VGND.t20 sky130_fd_pr__nfet_01v8 ad=0.0684 pd=0.74 as=0.066 ps=0.745 w=0.36 l=0.15
X48 a_13645_43723# a_13425_43723# VGND.t62 VGND.t12 sky130_fd_pr__nfet_01v8 ad=0.0696 pd=0.765 as=0.12095 ps=1.085 w=0.42 l=0.15
X49 VDPWR.t3 ring_0/skullfet_inverter_16.A ring_0/skullfet_inverter_17.A VDPWR.t2 sky130_fd_pr__pfet_01v8 ad=4.4307 pd=10.9 as=6.2694 ps=26.64 w=4.05 l=0.4
X50 VDPWR.t85 ring_0/skullfet_inverter_18.A ring_0/skullfet_inverter_19.A VDPWR.t84 sky130_fd_pr__pfet_01v8 ad=4.4307 pd=10.9 as=6.2694 ps=26.64 w=4.05 l=0.4
X51 VGND.t64 a_15428_43697# a_15357_43723# VGND.t63 sky130_fd_pr__nfet_01v8 ad=0.12095 pd=1.085 as=0.0989 ps=0.995 w=0.64 l=0.15
X52 VGND.t48 a_12732_43697# uo_out[3].t1 VGND.t6 sky130_fd_pr__nfet_01v8 ad=0.08775 pd=0.92 as=0.169 ps=1.82 w=0.65 l=0.15
X53 VGND.t23 ring_0/skullfet_inverter_6.A ring_0/skullfet_inverter_7.A VGND.t22 sky130_fd_pr__nfet_01v8 ad=4.2687 pd=10.82 as=6.4314 ps=26.72 w=4.05 l=0.4
X54 VDPWR.t79 a_17360_43697# a_17289_43723# VDPWR.t78 sky130_fd_pr__pfet_01v8_hvt ad=0.178875 pd=1.26 as=0.1095 ps=1.075 w=0.75 l=0.15
X55 a_14664_43697# a_14936_43697# VDPWR.t5 VDPWR.t4 sky130_fd_pr__pfet_01v8_hvt ad=0.27 pd=2.54 as=0.135 ps=1.27 w=1 l=0.15
X56 VGND.t53 a_13289_43697# a_13296_43997# VGND.t12 sky130_fd_pr__nfet_01v8 ad=0.0567 pd=0.69 as=0.1092 ps=1.36 w=0.42 l=0.15
X57 ring_0/skullfet_inverter_1.A ring_0/skullfet_inverter_20.Y VDPWR.t15 VDPWR.t14 sky130_fd_pr__pfet_01v8 ad=6.2694 pd=26.64 as=4.4307 ps=10.9 w=4.05 l=0.4
X58 VDPWR.t47 ring_0/skullfet_inverter_15.A ring_0/skullfet_inverter_16.A VDPWR.t46 sky130_fd_pr__pfet_01v8 ad=4.4307 pd=10.9 as=6.2694 ps=26.64 w=4.05 l=0.4
X59 ring_0/skullfet_inverter_20.A ring_0/skullfet_inverter_19.A VDPWR.t49 VDPWR.t48 sky130_fd_pr__pfet_01v8 ad=6.2694 pd=26.64 as=4.4307 ps=10.9 w=4.05 l=0.4
X60 a_14569_43697# a_14664_43697# VGND.t28 VGND.t12 sky130_fd_pr__nfet_01v8 ad=0.1092 pd=1.36 as=0.097 ps=0.975 w=0.42 l=0.15
X61 a_15604_44089# a_15357_43723# VDPWR.t53 VDPWR.t52 sky130_fd_pr__pfet_01v8_hvt ad=0.07665 pd=0.785 as=0.178875 ps=1.26 w=0.42 l=0.15
X62 a_15357_43723# a_15221_43697# a_14936_43697# VDPWR.t107 sky130_fd_pr__pfet_01v8_hvt ad=0.1095 pd=1.075 as=0.0567 ps=0.69 w=0.42 l=0.15
X63 a_15428_43697# a_15221_43697# a_15604_44089# VDPWR.t106 sky130_fd_pr__pfet_01v8_hvt ad=0.06825 pd=0.745 as=0.07665 ps=0.785 w=0.42 l=0.15
X64 a_12732_43697# a_13004_43697# VGND.t67 VGND.t6 sky130_fd_pr__nfet_01v8 ad=0.169 pd=1.82 as=0.08775 ps=0.92 w=0.65 l=0.15
X65 VGND.t9 ring_0/skullfet_inverter_4.A uo_out[0].t1 VGND.t8 sky130_fd_pr__nfet_01v8 ad=4.2687 pd=10.82 as=6.4314 ps=26.72 w=4.05 l=0.4
X66 a_17289_43723# a_17160_43997# a_16868_43697# VGND.t20 sky130_fd_pr__nfet_01v8 ad=0.0989 pd=0.995 as=0.0684 ps=0.74 w=0.36 l=0.15
X67 VDPWR.t13 freq_divider_0.sky130_fd_sc_hd__dfxbp_1_1.Q_N a_17707_43723# VDPWR.t12 sky130_fd_pr__pfet_01v8_hvt ad=0.1092 pd=1.36 as=0.05775 ps=0.695 w=0.42 l=0.15
X68 VDPWR.t59 a_12732_43697# uo_out[3].t0 VDPWR.t58 sky130_fd_pr__pfet_01v8_hvt ad=0.135 pd=1.27 as=0.26 ps=2.52 w=1 l=0.15
X69 VGND.t66 ring_0/skullfet_inverter_10.A ring_0/skullfet_inverter_11.A VGND.t65 sky130_fd_pr__nfet_01v8 ad=4.2687 pd=10.82 as=6.4314 ps=26.72 w=4.05 l=0.4
X70 ring_0/skullfet_inverter_10.A ring_0/skullfet_inverter_9.A VDPWR.t9 VDPWR.t8 sky130_fd_pr__pfet_01v8 ad=6.2694 pd=26.64 as=4.4307 ps=10.9 w=4.05 l=0.4
X71 VDPWR.t113 ring_0/skullfet_inverter_13.A ring_0/skullfet_inverter_14.A VDPWR.t112 sky130_fd_pr__pfet_01v8 ad=4.4307 pd=10.9 as=6.2694 ps=26.64 w=4.05 l=0.4
X72 ring_0/skullfet_inverter_7.A ring_0/skullfet_inverter_6.A VDPWR.t23 VDPWR.t22 sky130_fd_pr__pfet_01v8 ad=6.2694 pd=26.64 as=4.4307 ps=10.9 w=4.05 l=0.4
X73 a_17153_43697# uo_out[0].t4 VDPWR.t41 VDPWR.t40 sky130_fd_pr__pfet_01v8_hvt ad=0.1664 pd=1.8 as=0.0864 ps=0.91 w=0.64 l=0.15
X74 a_17536_44089# a_17289_43723# VDPWR.t1 VDPWR.t0 sky130_fd_pr__pfet_01v8_hvt ad=0.07665 pd=0.785 as=0.178875 ps=1.26 w=0.42 l=0.15
X75 a_15775_43723# a_15221_43697# a_15428_43697# VGND.t31 sky130_fd_pr__nfet_01v8 ad=0.0813 pd=0.83 as=0.0621 ps=0.705 w=0.36 l=0.15
X76 a_17360_43697# a_17153_43697# a_17536_44089# VDPWR.t20 sky130_fd_pr__pfet_01v8_hvt ad=0.06825 pd=0.745 as=0.07665 ps=0.785 w=0.42 l=0.15
X77 a_17111_44089# a_16596_43697# VDPWR.t29 VDPWR.t28 sky130_fd_pr__pfet_01v8_hvt ad=0.0882 pd=0.84 as=0.1113 ps=1.37 w=0.42 l=0.15
X78 a_13004_43697# a_13296_43997# a_13247_44089# VDPWR.t98 sky130_fd_pr__pfet_01v8_hvt ad=0.0567 pd=0.69 as=0.0882 ps=0.84 w=0.42 l=0.15
X79 VDPWR.t65 a_16501_43697# freq_divider_0.sky130_fd_sc_hd__dfxbp_1_1.Q_N VDPWR.t64 sky130_fd_pr__pfet_01v8_hvt ad=0.154 pd=1.335 as=0.26 ps=2.52 w=1 l=0.15
X80 a_12732_43697# a_13004_43697# VDPWR.t93 VDPWR.t92 sky130_fd_pr__pfet_01v8_hvt ad=0.27 pd=2.54 as=0.135 ps=1.27 w=1 l=0.15
X81 VGND.t43 ring_0/skullfet_inverter_3.A ring_0/skullfet_inverter_4.A VGND.t42 sky130_fd_pr__nfet_01v8 ad=4.2687 pd=10.82 as=6.4314 ps=26.72 w=4.05 l=0.4
X82 VGND.t34 freq_divider_0.sky130_fd_sc_hd__dfxbp_1_2.Q_N a_15775_43723# VGND.t12 sky130_fd_pr__nfet_01v8 ad=0.1092 pd=1.36 as=0.0813 ps=0.83 w=0.42 l=0.15
X83 a_13496_43697# a_13296_43997# a_13645_43723# VGND.t31 sky130_fd_pr__nfet_01v8 ad=0.0621 pd=0.705 as=0.0696 ps=0.765 w=0.36 l=0.15
X84 uo_out[0].t0 ring_0/skullfet_inverter_4.A VDPWR.t7 VDPWR.t6 sky130_fd_pr__pfet_01v8 ad=6.2694 pd=26.64 as=4.4307 ps=10.9 w=4.05 l=0.4
X85 ring_0/skullfet_inverter_11.A ring_0/skullfet_inverter_10.A VDPWR.t91 VDPWR.t90 sky130_fd_pr__pfet_01v8 ad=6.2694 pd=26.64 as=4.4307 ps=10.9 w=4.05 l=0.4
X86 a_16501_43697# a_16596_43697# VDPWR.t27 VDPWR.t26 sky130_fd_pr__pfet_01v8_hvt ad=0.1664 pd=1.8 as=0.154 ps=1.335 w=0.64 l=0.15
X87 a_14936_43697# a_15221_43697# a_15156_43723# VGND.t31 sky130_fd_pr__nfet_01v8 ad=0.0684 pd=0.74 as=0.066 ps=0.745 w=0.36 l=0.15
X88 VDPWR.t19 a_17153_43697# a_17160_43997# VDPWR.t18 sky130_fd_pr__pfet_01v8_hvt ad=0.0864 pd=0.91 as=0.1664 ps=1.8 w=0.64 l=0.15
X89 VDPWR.t89 a_15428_43697# a_15357_43723# VDPWR.t88 sky130_fd_pr__pfet_01v8_hvt ad=0.178875 pd=1.26 as=0.1095 ps=1.075 w=0.75 l=0.15
X90 VGND.t11 ring_0/skullfet_inverter_9.A ring_0/skullfet_inverter_10.A VGND.t10 sky130_fd_pr__nfet_01v8 ad=4.2687 pd=10.82 as=6.4314 ps=26.72 w=4.05 l=0.4
X91 ring_0/skullfet_inverter_4.A ring_0/skullfet_inverter_3.A VDPWR.t55 VDPWR.t54 sky130_fd_pr__pfet_01v8 ad=6.2694 pd=26.64 as=4.4307 ps=10.9 w=4.05 l=0.4
X92 ring_0/skullfet_inverter_14.A ring_0/skullfet_inverter_13.A VGND.t82 VGND.t81 sky130_fd_pr__nfet_01v8 ad=6.4314 pd=26.72 as=4.2687 ps=10.82 w=4.05 l=0.4
X93 a_13425_43723# a_13296_43997# a_13004_43697# VGND.t31 sky130_fd_pr__nfet_01v8 ad=0.0989 pd=0.995 as=0.0684 ps=0.74 w=0.36 l=0.15
X94 ring_0/skullfet_inverter_20.Y ring_0/skullfet_inverter_20.A VDPWR.t51 VDPWR.t50 sky130_fd_pr__pfet_01v8 ad=6.2694 pd=26.64 as=4.4307 ps=10.9 w=4.05 l=0.4
X95 a_12637_43697# a_12732_43697# VGND.t47 VGND.t46 sky130_fd_pr__nfet_01v8 ad=0.1092 pd=1.36 as=0.097 ps=0.975 w=0.42 l=0.15
X96 a_13672_44089# a_13425_43723# VDPWR.t87 VDPWR.t86 sky130_fd_pr__pfet_01v8_hvt ad=0.07665 pd=0.785 as=0.178875 ps=1.26 w=0.42 l=0.15
X97 ring_0/skullfet_inverter_18.A ring_0/skullfet_inverter_17.A VGND.t80 VGND.t79 sky130_fd_pr__nfet_01v8 ad=6.4314 pd=26.72 as=4.2687 ps=10.82 w=4.05 l=0.4
X98 a_13425_43723# a_13289_43697# a_13004_43697# VDPWR.t69 sky130_fd_pr__pfet_01v8_hvt ad=0.1095 pd=1.075 as=0.0567 ps=0.69 w=0.42 l=0.15
X99 a_13496_43697# a_13289_43697# a_13672_44089# VDPWR.t68 sky130_fd_pr__pfet_01v8_hvt ad=0.06825 pd=0.745 as=0.07665 ps=0.785 w=0.42 l=0.15
X100 VDPWR.t97 a_14569_43697# freq_divider_0.sky130_fd_sc_hd__dfxbp_1_2.Q_N VDPWR.t96 sky130_fd_pr__pfet_01v8_hvt ad=0.154 pd=1.335 as=0.26 ps=2.52 w=1 l=0.15
X101 a_15357_43723# a_15228_43997# a_14936_43697# VGND.t31 sky130_fd_pr__nfet_01v8 ad=0.0989 pd=0.995 as=0.0684 ps=0.74 w=0.36 l=0.15
X102 VDPWR.t45 freq_divider_0.sky130_fd_sc_hd__dfxbp_1_2.Q_N a_15775_43723# VDPWR.t44 sky130_fd_pr__pfet_01v8_hvt ad=0.1092 pd=1.36 as=0.05775 ps=0.695 w=0.42 l=0.15
X103 VDPWR.t95 ring_0/skullfet_inverter_14.A ring_0/skullfet_inverter_15.A VDPWR.t94 sky130_fd_pr__pfet_01v8 ad=4.4307 pd=10.9 as=6.2694 ps=26.64 w=4.05 l=0.4
X104 a_17153_43697# uo_out[0].t5 VGND.t5 VGND.t4 sky130_fd_pr__nfet_01v8 ad=0.1092 pd=1.36 as=0.0567 ps=0.69 w=0.42 l=0.15
X105 a_13843_43723# a_13289_43697# a_13496_43697# VGND.t31 sky130_fd_pr__nfet_01v8 ad=0.0813 pd=0.83 as=0.0621 ps=0.705 w=0.36 l=0.15
X106 a_17509_43723# a_17289_43723# VGND.t1 VGND.t0 sky130_fd_pr__nfet_01v8 ad=0.0696 pd=0.765 as=0.12095 ps=1.085 w=0.42 l=0.15
X107 VGND.t26 a_16596_43697# uo_out[1].t1 VGND.t25 sky130_fd_pr__nfet_01v8 ad=0.08775 pd=0.92 as=0.169 ps=1.82 w=0.65 l=0.15
X108 a_13004_43697# a_13289_43697# a_13224_43723# VGND.t31 sky130_fd_pr__nfet_01v8 ad=0.0684 pd=0.74 as=0.066 ps=0.745 w=0.36 l=0.15
X109 VGND.t58 a_17360_43697# a_17289_43723# VGND.t57 sky130_fd_pr__nfet_01v8 ad=0.12095 pd=1.085 as=0.0989 ps=0.995 w=0.64 l=0.15
X110 VGND.t50 a_16501_43697# freq_divider_0.sky130_fd_sc_hd__dfxbp_1_1.Q_N VGND.t6 sky130_fd_pr__nfet_01v8 ad=0.097 pd=0.975 as=0.169 ps=1.82 w=0.65 l=0.15
X111 VDPWR.t105 a_15221_43697# a_15228_43997# VDPWR.t104 sky130_fd_pr__pfet_01v8_hvt ad=0.0864 pd=0.91 as=0.1664 ps=1.8 w=0.64 l=0.15
X112 VGND.t55 freq_divider_0.sky130_fd_sc_hd__dfxbp_1_3.Q_N a_13843_43723# VGND.t12 sky130_fd_pr__nfet_01v8 ad=0.1092 pd=1.36 as=0.0813 ps=0.83 w=0.42 l=0.15
X113 a_15775_43723# a_15228_43997# a_15428_43697# VDPWR.t36 sky130_fd_pr__pfet_01v8_hvt ad=0.05775 pd=0.695 as=0.06825 ps=0.745 w=0.42 l=0.15
X114 ring_0/skullfet_inverter_19.A ring_0/skullfet_inverter_18.A VGND.t61 VGND.t60 sky130_fd_pr__nfet_01v8 ad=6.4314 pd=26.72 as=4.2687 ps=10.82 w=4.05 l=0.4
X115 a_16596_43697# a_16868_43697# VDPWR.t83 VDPWR.t82 sky130_fd_pr__pfet_01v8_hvt ad=0.27 pd=2.54 as=0.135 ps=1.27 w=1 l=0.15
X116 a_14569_43697# a_14664_43697# VDPWR.t31 VDPWR.t30 sky130_fd_pr__pfet_01v8_hvt ad=0.1664 pd=1.8 as=0.154 ps=1.335 w=0.64 l=0.15
X117 VGND.t40 ring_0/skullfet_inverter_20.A ring_0/skullfet_inverter_20.Y VGND.t39 sky130_fd_pr__nfet_01v8 ad=4.2687 pd=10.82 as=6.4314 ps=26.72 w=4.05 l=0.4
X118 ring_0/skullfet_inverter_17.A ring_0/skullfet_inverter_16.A VGND.t3 VGND.t2 sky130_fd_pr__nfet_01v8 ad=6.4314 pd=26.72 as=4.2687 ps=10.82 w=4.05 l=0.4
X119 a_17707_43723# a_17160_43997# a_17360_43697# VDPWR.t80 sky130_fd_pr__pfet_01v8_hvt ad=0.05775 pd=0.695 as=0.06825 ps=0.745 w=0.42 l=0.15
X120 VDPWR.t25 a_16596_43697# uo_out[1].t0 VDPWR.t24 sky130_fd_pr__pfet_01v8_hvt ad=0.135 pd=1.27 as=0.26 ps=2.52 w=1 l=0.15
X121 VGND.t45 ring_0/skullfet_inverter_8.A ring_0/skullfet_inverter_9.A VGND.t44 sky130_fd_pr__nfet_01v8 ad=4.2687 pd=10.82 as=6.4314 ps=26.72 w=4.05 l=0.4
X122 VDPWR.t101 a_13496_43697# a_13425_43723# VDPWR.t100 sky130_fd_pr__pfet_01v8_hvt ad=0.178875 pd=1.26 as=0.1095 ps=1.075 w=0.75 l=0.15
X123 ring_0/skullfet_inverter_3.A ring_0/skullfet_inverter_2.A VDPWR.t67 VDPWR.t66 sky130_fd_pr__pfet_01v8 ad=6.2694 pd=26.64 as=4.4307 ps=10.9 w=4.05 l=0.4
X124 VGND.t19 a_17153_43697# a_17160_43997# VGND.t4 sky130_fd_pr__nfet_01v8 ad=0.0567 pd=0.69 as=0.1092 ps=1.36 w=0.42 l=0.15
X125 a_17088_43723# a_16596_43697# VGND.t24 VGND.t0 sky130_fd_pr__nfet_01v8 ad=0.066 pd=0.745 as=0.1092 ps=1.36 w=0.42 l=0.15
R0 uo_out[2].n2 uo_out[2].t1 313.104
R1 uo_out[2].n0 uo_out[2].t2 294.557
R2 uo_out[2].t0 uo_out[2].n2 265.769
R3 uo_out[2] uo_out[2].t0 262.318
R4 uo_out[2].n0 uo_out[2].t3 211.01
R5 uo_out[2].n1 uo_out[2].n0 152
R6 uo_out[2].n5 uo_out[2] 16.2155
R7 uo_out[2].n4 uo_out[2].n1 11.6311
R8 uo_out[2].n4 uo_out[2].n3 9.3005
R9 uo_out[2].n3 uo_out[2] 7.17626
R10 uo_out[2].n3 uo_out[2].n2 4.84898
R11 uo_out[2].n5 uo_out[2].n4 4.51042
R12 uo_out[2].n1 uo_out[2] 1.37896
R13 uo_out[2] uo_out[2].n5 0.0730806
R14 VDPWR.n5 VDPWR.t43 739.681
R15 VDPWR.n3 VDPWR.t113 739.681
R16 VDPWR.n230 VDPWR.t3 739.681
R17 VDPWR.n227 VDPWR.t51 739.681
R18 VDPWR.n224 VDPWR.t109 739.681
R19 VDPWR.n366 VDPWR.t91 739.681
R20 VDPWR.n278 VDPWR.t85 739.681
R21 VDPWR.n280 VDPWR.t49 739.681
R22 VDPWR.n228 VDPWR.t111 739.681
R23 VDPWR.n232 VDPWR.t47 739.681
R24 VDPWR.n0 VDPWR.t95 739.681
R25 VDPWR.n7 VDPWR.t17 739.681
R26 VDPWR.n225 VDPWR.t15 739.681
R27 VDPWR.n222 VDPWR.t67 739.681
R28 VDPWR.n177 VDPWR.t39 739.681
R29 VDPWR.n173 VDPWR.t23 739.681
R30 VDPWR.n152 VDPWR.t103 739.681
R31 VDPWR.n360 VDPWR.t57 739.681
R32 VDPWR.n363 VDPWR.t9 739.681
R33 VDPWR.n199 VDPWR.t7 739.681
R34 VDPWR.n288 VDPWR.t55 739.681
R35 VDPWR.n7 VDPWR.t16 707.852
R36 VDPWR.n5 VDPWR.t42 707.852
R37 VDPWR.n3 VDPWR.t112 707.852
R38 VDPWR.n230 VDPWR.t2 707.852
R39 VDPWR.n227 VDPWR.t50 707.852
R40 VDPWR.n225 VDPWR.t14 707.852
R41 VDPWR.n224 VDPWR.t108 707.852
R42 VDPWR.n222 VDPWR.t66 707.852
R43 VDPWR.n177 VDPWR.t38 707.852
R44 VDPWR.n173 VDPWR.t22 707.852
R45 VDPWR.n152 VDPWR.t102 707.852
R46 VDPWR.n360 VDPWR.t56 707.852
R47 VDPWR.n363 VDPWR.t8 707.852
R48 VDPWR.n366 VDPWR.t90 707.852
R49 VDPWR.n199 VDPWR.t6 707.852
R50 VDPWR.n288 VDPWR.t54 707.852
R51 VDPWR.n278 VDPWR.t84 707.852
R52 VDPWR.n280 VDPWR.t48 707.852
R53 VDPWR.n228 VDPWR.t110 707.852
R54 VDPWR.n232 VDPWR.t46 707.852
R55 VDPWR.n0 VDPWR.t94 707.852
R56 VDPWR.n92 VDPWR.t61 667.734
R57 VDPWR.n60 VDPWR.t35 667.734
R58 VDPWR.n130 VDPWR.t29 667.734
R59 VDPWR.n107 VDPWR.t75 666.677
R60 VDPWR.n46 VDPWR.t45 666.677
R61 VDPWR.n144 VDPWR.t13 666.677
R62 VDPWR.t82 VDPWR.t28 624.456
R63 VDPWR.t34 VDPWR.t4 624.456
R64 VDPWR.t60 VDPWR.t92 624.456
R65 VDPWR.n110 VDPWR.n109 604.394
R66 VDPWR.n39 VDPWR.n38 604.394
R67 VDPWR.n148 VDPWR.n10 604.394
R68 VDPWR.t12 VDPWR.t18 556.386
R69 VDPWR.t26 VDPWR.t24 556.386
R70 VDPWR.t104 VDPWR.t44 556.386
R71 VDPWR.t32 VDPWR.t30 556.386
R72 VDPWR.t70 VDPWR.t74 556.386
R73 VDPWR.t58 VDPWR.t62 556.386
R74 VDPWR.n118 VDPWR.t64 414.33
R75 VDPWR.t96 VDPWR.n116 414.33
R76 VDPWR.t78 VDPWR.t0 390.654
R77 VDPWR.t52 VDPWR.t88 390.654
R78 VDPWR.t86 VDPWR.t100 390.654
R79 VDPWR.t28 VDPWR.t81 337.384
R80 VDPWR.t37 VDPWR.t34 337.384
R81 VDPWR.t98 VDPWR.t60 337.384
R82 VDPWR.n90 VDPWR.n80 333.348
R83 VDPWR.n62 VDPWR.n30 333.348
R84 VDPWR.n18 VDPWR.n17 333.348
R85 VDPWR.n76 VDPWR.n75 320.976
R86 VDPWR.n53 VDPWR.n34 320.976
R87 VDPWR.n137 VDPWR.n14 320.976
R88 VDPWR.t0 VDPWR.t20 304.829
R89 VDPWR.t106 VDPWR.t52 304.829
R90 VDPWR.t68 VDPWR.t86 304.829
R91 VDPWR.t64 VDPWR.t26 287.072
R92 VDPWR.t30 VDPWR.t96 287.072
R93 VDPWR.t62 VDPWR.t76 287.072
R94 VDPWR.t20 VDPWR.t80 281.154
R95 VDPWR.t21 VDPWR.t78 281.154
R96 VDPWR.t36 VDPWR.t106 281.154
R97 VDPWR.t88 VDPWR.t107 281.154
R98 VDPWR.t99 VDPWR.t68 281.154
R99 VDPWR.t100 VDPWR.t69 281.154
R100 VDPWR.n118 VDPWR.n117 272.274
R101 VDPWR.n117 VDPWR 272.274
R102 VDPWR.n116 VDPWR.n115 272.274
R103 VDPWR.n115 VDPWR 272.274
R104 VDPWR.t80 VDPWR.t12 251.559
R105 VDPWR.t44 VDPWR.t36 251.559
R106 VDPWR.t74 VDPWR.t99 251.559
R107 VDPWR.t18 VDPWR.t40 248.599
R108 VDPWR.t81 VDPWR.t21 248.599
R109 VDPWR.t24 VDPWR.t82 248.599
R110 VDPWR.t10 VDPWR.t104 248.599
R111 VDPWR.t107 VDPWR.t37 248.599
R112 VDPWR.t4 VDPWR.t32 248.599
R113 VDPWR.t72 VDPWR.t70 248.599
R114 VDPWR.t69 VDPWR.t98 248.599
R115 VDPWR.t92 VDPWR.t58 248.599
R116 VDPWR.n84 VDPWR.n83 240.522
R117 VDPWR.n68 VDPWR.n27 240.522
R118 VDPWR.n21 VDPWR.n20 240.522
R119 VDPWR.n115 VDPWR.n114 213.119
R120 VDPWR.n116 VDPWR.n24 213.119
R121 VDPWR.n117 VDPWR.n22 213.119
R122 VDPWR.n119 VDPWR.n118 213.119
R123 VDPWR.n75 VDPWR.t87 113.98
R124 VDPWR.n34 VDPWR.t53 113.98
R125 VDPWR.n14 VDPWR.t1 113.98
R126 VDPWR.t40 VDPWR 91.745
R127 VDPWR VDPWR.t10 91.745
R128 VDPWR VDPWR.t72 91.745
R129 VDPWR.n83 VDPWR.t63 61.9872
R130 VDPWR.n27 VDPWR.t31 61.9872
R131 VDPWR.n20 VDPWR.t27 61.9872
R132 VDPWR.n109 VDPWR.t73 41.5552
R133 VDPWR.n109 VDPWR.t71 41.5552
R134 VDPWR.n38 VDPWR.t11 41.5552
R135 VDPWR.n38 VDPWR.t105 41.5552
R136 VDPWR.n10 VDPWR.t41 41.5552
R137 VDPWR.n10 VDPWR.t19 41.5552
R138 VDPWR.n75 VDPWR.t101 35.4605
R139 VDPWR.n34 VDPWR.t89 35.4605
R140 VDPWR.n14 VDPWR.t79 35.4605
R141 VDPWR.n89 VDPWR.n81 34.6358
R142 VDPWR.n85 VDPWR.n81 34.6358
R143 VDPWR.n103 VDPWR.n73 34.6358
R144 VDPWR.n103 VDPWR.n102 34.6358
R145 VDPWR.n102 VDPWR.n101 34.6358
R146 VDPWR.n98 VDPWR.n97 34.6358
R147 VDPWR.n97 VDPWR.n96 34.6358
R148 VDPWR.n96 VDPWR.n78 34.6358
R149 VDPWR.n63 VDPWR.n28 34.6358
R150 VDPWR.n67 VDPWR.n28 34.6358
R151 VDPWR.n48 VDPWR.n47 34.6358
R152 VDPWR.n48 VDPWR.n35 34.6358
R153 VDPWR.n52 VDPWR.n35 34.6358
R154 VDPWR.n55 VDPWR.n54 34.6358
R155 VDPWR.n55 VDPWR.n32 34.6358
R156 VDPWR.n59 VDPWR.n32 34.6358
R157 VDPWR.n126 VDPWR.n125 34.6358
R158 VDPWR.n125 VDPWR.n124 34.6358
R159 VDPWR.n143 VDPWR.n142 34.6358
R160 VDPWR.n142 VDPWR.n12 34.6358
R161 VDPWR.n138 VDPWR.n12 34.6358
R162 VDPWR.n136 VDPWR.n135 34.6358
R163 VDPWR.n135 VDPWR.n15 34.6358
R164 VDPWR.n131 VDPWR.n15 34.6358
R165 VDPWR.n91 VDPWR.n90 32.0005
R166 VDPWR.n62 VDPWR.n61 32.0005
R167 VDPWR.n129 VDPWR.n18 32.0005
R168 VDPWR.n149 VDPWR.n148 30.7593
R169 VDPWR.n92 VDPWR.n91 30.4946
R170 VDPWR.n61 VDPWR.n60 30.4946
R171 VDPWR.n130 VDPWR.n129 30.4946
R172 VDPWR.n83 VDPWR.t77 30.1692
R173 VDPWR.n27 VDPWR.t97 30.1692
R174 VDPWR.n20 VDPWR.t65 30.1692
R175 VDPWR.n107 VDPWR.n73 27.4829
R176 VDPWR.n69 VDPWR.n68 27.4829
R177 VDPWR.n47 VDPWR.n46 27.4829
R178 VDPWR.n120 VDPWR.n21 27.4829
R179 VDPWR.n144 VDPWR.n143 27.4829
R180 VDPWR.n80 VDPWR.t93 26.5955
R181 VDPWR.n80 VDPWR.t59 26.5955
R182 VDPWR.n30 VDPWR.t5 26.5955
R183 VDPWR.n30 VDPWR.t33 26.5955
R184 VDPWR.n17 VDPWR.t83 26.5955
R185 VDPWR.n17 VDPWR.t25 26.5955
R186 VDPWR.n85 VDPWR.n84 25.6005
R187 VDPWR.n68 VDPWR.n67 25.6005
R188 VDPWR.n124 VDPWR.n21 25.6005
R189 VDPWR.n114 VDPWR.n25 23.7181
R190 VDPWR.n69 VDPWR.n24 23.7181
R191 VDPWR.n41 VDPWR.n22 23.7181
R192 VDPWR.n120 VDPWR.n119 23.7181
R193 VDPWR.n110 VDPWR.n108 22.9652
R194 VDPWR.n45 VDPWR.n39 22.9652
R195 VDPWR.n148 VDPWR.n9 22.9652
R196 VDPWR.n108 VDPWR.n107 21.8358
R197 VDPWR.n46 VDPWR.n45 21.8358
R198 VDPWR.n144 VDPWR.n9 21.8358
R199 VDPWR.n110 VDPWR.n25 21.4593
R200 VDPWR.n41 VDPWR.n39 21.4593
R201 VDPWR.n101 VDPWR.n76 18.4476
R202 VDPWR.n53 VDPWR.n52 18.4476
R203 VDPWR.n138 VDPWR.n137 18.4476
R204 VDPWR.n150 VDPWR.n149 16.5693
R205 VDPWR.n98 VDPWR.n76 16.1887
R206 VDPWR.n54 VDPWR.n53 16.1887
R207 VDPWR.n137 VDPWR.n136 16.1887
R208 VDPWR.n92 VDPWR.n78 15.0593
R209 VDPWR.n60 VDPWR.n59 15.0593
R210 VDPWR.n131 VDPWR.n130 15.0593
R211 VDPWR.n8 VDPWR.n7 13.377
R212 VDPWR.n226 VDPWR.n225 13.377
R213 VDPWR.n223 VDPWR.n222 13.377
R214 VDPWR.n178 VDPWR.n177 13.377
R215 VDPWR.n174 VDPWR.n173 13.377
R216 VDPWR.n153 VDPWR.n152 13.377
R217 VDPWR.n361 VDPWR.n360 13.377
R218 VDPWR.n364 VDPWR.n363 13.377
R219 VDPWR.n200 VDPWR.n199 13.377
R220 VDPWR.n289 VDPWR.n288 13.377
R221 VDPWR VDPWR.n5 13.3202
R222 VDPWR.n4 VDPWR.n3 13.3202
R223 VDPWR.n231 VDPWR.n230 13.3202
R224 VDPWR VDPWR.n227 13.3202
R225 VDPWR VDPWR.n224 13.3202
R226 VDPWR VDPWR.n366 13.3202
R227 VDPWR.n279 VDPWR.n278 13.3202
R228 VDPWR VDPWR.n280 13.3202
R229 VDPWR.n229 VDPWR.n228 13.3202
R230 VDPWR.n233 VDPWR.n232 13.3202
R231 VDPWR.n373 VDPWR.n0 13.3202
R232 VDPWR.n114 VDPWR.n24 12.8005
R233 VDPWR.n119 VDPWR.n22 12.8005
R234 VDPWR.n283 VDPWR 9.7375
R235 VDPWR.n281 VDPWR 9.39357
R236 VDPWR.n148 VDPWR.n147 9.3005
R237 VDPWR.n146 VDPWR.n9 9.3005
R238 VDPWR.n145 VDPWR.n144 9.3005
R239 VDPWR.n143 VDPWR.n11 9.3005
R240 VDPWR.n142 VDPWR.n141 9.3005
R241 VDPWR.n140 VDPWR.n12 9.3005
R242 VDPWR.n139 VDPWR.n138 9.3005
R243 VDPWR.n136 VDPWR.n13 9.3005
R244 VDPWR.n135 VDPWR.n134 9.3005
R245 VDPWR.n133 VDPWR.n15 9.3005
R246 VDPWR.n132 VDPWR.n131 9.3005
R247 VDPWR.n130 VDPWR.n16 9.3005
R248 VDPWR.n129 VDPWR.n128 9.3005
R249 VDPWR.n127 VDPWR.n126 9.3005
R250 VDPWR.n125 VDPWR.n19 9.3005
R251 VDPWR.n124 VDPWR.n123 9.3005
R252 VDPWR.n122 VDPWR.n21 9.3005
R253 VDPWR.n121 VDPWR.n120 9.3005
R254 VDPWR.n119 VDPWR.n23 9.3005
R255 VDPWR.n40 VDPWR.n22 9.3005
R256 VDPWR.n42 VDPWR.n41 9.3005
R257 VDPWR.n43 VDPWR.n39 9.3005
R258 VDPWR.n45 VDPWR.n44 9.3005
R259 VDPWR.n46 VDPWR.n37 9.3005
R260 VDPWR.n47 VDPWR.n36 9.3005
R261 VDPWR.n49 VDPWR.n48 9.3005
R262 VDPWR.n50 VDPWR.n35 9.3005
R263 VDPWR.n52 VDPWR.n51 9.3005
R264 VDPWR.n54 VDPWR.n33 9.3005
R265 VDPWR.n56 VDPWR.n55 9.3005
R266 VDPWR.n57 VDPWR.n32 9.3005
R267 VDPWR.n59 VDPWR.n58 9.3005
R268 VDPWR.n60 VDPWR.n31 9.3005
R269 VDPWR.n61 VDPWR.n29 9.3005
R270 VDPWR.n64 VDPWR.n63 9.3005
R271 VDPWR.n65 VDPWR.n28 9.3005
R272 VDPWR.n67 VDPWR.n66 9.3005
R273 VDPWR.n68 VDPWR.n26 9.3005
R274 VDPWR.n70 VDPWR.n69 9.3005
R275 VDPWR.n71 VDPWR.n24 9.3005
R276 VDPWR.n114 VDPWR.n113 9.3005
R277 VDPWR.n112 VDPWR.n25 9.3005
R278 VDPWR.n111 VDPWR.n110 9.3005
R279 VDPWR.n108 VDPWR.n72 9.3005
R280 VDPWR.n107 VDPWR.n106 9.3005
R281 VDPWR.n105 VDPWR.n73 9.3005
R282 VDPWR.n104 VDPWR.n103 9.3005
R283 VDPWR.n102 VDPWR.n74 9.3005
R284 VDPWR.n101 VDPWR.n100 9.3005
R285 VDPWR.n99 VDPWR.n98 9.3005
R286 VDPWR.n97 VDPWR.n77 9.3005
R287 VDPWR.n96 VDPWR.n95 9.3005
R288 VDPWR.n94 VDPWR.n78 9.3005
R289 VDPWR.n93 VDPWR.n92 9.3005
R290 VDPWR.n91 VDPWR.n79 9.3005
R291 VDPWR.n89 VDPWR.n88 9.3005
R292 VDPWR.n87 VDPWR.n81 9.3005
R293 VDPWR.n86 VDPWR.n85 9.3005
R294 VDPWR.n369 VDPWR.n8 8.51977
R295 VDPWR.n285 VDPWR 8.13646
R296 VDPWR.n282 VDPWR.n277 7.53241
R297 VDPWR.n365 VDPWR.n364 7.53109
R298 VDPWR.n362 VDPWR.n361 7.45619
R299 VDPWR.n84 VDPWR.n82 7.4049
R300 VDPWR.n6 VDPWR 7.19357
R301 VDPWR.n358 VDPWR.n153 6.79323
R302 VDPWR.n284 VDPWR.n226 6.76538
R303 VDPWR.n367 VDPWR 6.40107
R304 VDPWR.n277 VDPWR.n229 6.34337
R305 VDPWR.n276 VDPWR.n231 6.19552
R306 VDPWR.n281 VDPWR.n279 6.1805
R307 VDPWR.n286 VDPWR.n223 6.08268
R308 VDPWR.n283 VDPWR.n282 6.07848
R309 VDPWR.n175 VDPWR.n174 6.01772
R310 VDPWR.n290 VDPWR.n289 6.01019
R311 VDPWR.n312 VDPWR.n200 5.71852
R312 VDPWR.n333 VDPWR.n178 5.65925
R313 VDPWR.n234 VDPWR.n233 5.44488
R314 VDPWR.n373 VDPWR.n372 5.3655
R315 VDPWR.n6 VDPWR.n4 5.233
R316 VDPWR.n287 VDPWR.n286 4.1734
R317 VDPWR.n370 VDPWR.n369 4.09754
R318 VDPWR.n150 VDPWR 3.44278
R319 VDPWR.n334 VDPWR.n176 3.07281
R320 VDPWR.n90 VDPWR.n89 2.63579
R321 VDPWR.n63 VDPWR.n62 2.63579
R322 VDPWR.n126 VDPWR.n18 2.63579
R323 VDPWR.n368 VDPWR.n150 1.94486
R324 VDPWR.n282 VDPWR.n281 1.25038
R325 VDPWR.n371 VDPWR.n370 1.04464
R326 VDPWR.n277 VDPWR.n276 0.897709
R327 VDPWR.n367 VDPWR.n365 0.877511
R328 VDPWR.n218 VDPWR.n217 0.861295
R329 VDPWR.n369 VDPWR.n368 0.848036
R330 VDPWR.n286 VDPWR.n285 0.838747
R331 VDPWR.n284 VDPWR.n283 0.83329
R332 VDPWR.n285 VDPWR.n284 0.810795
R333 VDPWR.n362 VDPWR.n359 0.698295
R334 VDPWR.n276 VDPWR.n275 0.574375
R335 VDPWR.n365 VDPWR.n362 0.53699
R336 VDPWR.n219 VDPWR.n218 0.507602
R337 VDPWR.n335 VDPWR.n334 0.491158
R338 VDPWR.n370 VDPWR.n6 0.456575
R339 VDPWR.n220 VDPWR.n219 0.391496
R340 VDPWR.n179 VDPWR.n176 0.380996
R341 VDPWR.n221 VDPWR.n220 0.325974
R342 VDPWR.n275 VDPWR.n234 0.323617
R343 VDPWR.n287 VDPWR.n221 0.320751
R344 VDPWR.n180 VDPWR.n179 0.263105
R345 VDPWR.n181 VDPWR.n180 0.23221
R346 VDPWR.n291 VDPWR.n221 0.198913
R347 VDPWR.n292 VDPWR.n220 0.195812