* NGSPICE file created from tt_um_oscillating_bones.ext - technology: sky130A

.subckt tt_um_oscillating_bones clk ena rst_n ui_in[0] ui_in[1] ui_in[2] ui_in[3]
+ ui_in[4] ui_in[5] ui_in[6] ui_in[7] uio_in[0] uio_in[1] uio_in[2] uio_in[3] uio_in[4]
+ uio_in[5] uio_in[6] uio_in[7] uio_oe[0] uio_oe[1] uio_oe[2] uio_oe[3] uio_oe[4]
+ uio_oe[5] uio_oe[6] uio_oe[7] uio_out[0] uio_out[1] uio_out[2] uio_out[3] uio_out[4]
+ uio_out[5] uio_out[6] uio_out[7] uo_out[0] uo_out[1] uo_out[2] uo_out[3] uo_out[4]
+ uo_out[5] uo_out[6] uo_out[7] ua[0] ua[1] ua[2] ua[3] ua[4] ua[5] ua[6] ua[7] VAPWR
+ VDPWR VGND
X0 ring_0/skullfet_inverter_7.A ring_0/skullfet_inverter_6.A VAPWR.t25 VAPWR.t24 sky130_fd_pr__pfet_g5v0d10v5 ad=7.5825 pd=29.53 as=5.3775 ps=12.07 w=4.5 l=0.5
X1 VGND.t22 ring_0/skullfet_inverter_4.A ring_0/skullfet_inverter_5.A VGND.t21 sky130_fd_pr__nfet_g5v0d10v5 ad=5.1075 pd=11.95 as=7.8525 ps=29.65 w=4.5 l=0.5
X2 VDPWR.t51 freq_divider_0.sky130_fd_sc_hd__dfxbp_1_3.Q_N a_10715_43723# VDPWR.t50 sky130_fd_pr__pfet_01v8_hvt ad=0.1092 pd=1.36 as=0.05775 ps=0.695 w=0.42 l=0.15
X3 a_10544_44089# a_10297_43723# VDPWR.t17 VDPWR.t16 sky130_fd_pr__pfet_01v8_hvt ad=0.07665 pd=0.785 as=0.178875 ps=1.26 w=0.42 l=0.15
X4 a_10297_43723# a_10168_43997# a_9876_43697# VGND.t77 sky130_fd_pr__special_nfet_01v8 ad=0.0989 pd=0.995 as=0.0684 ps=0.74 w=0.36 l=0.15
X5 a_10368_43697# a_10161_43697# a_10544_44089# VDPWR.t49 sky130_fd_pr__pfet_01v8_hvt ad=0.06825 pd=0.745 as=0.07665 ps=0.785 w=0.42 l=0.15
X6 VGND.t48 ring_0/skullfet_inverter_12.A ring_0/skullfet_inverter_13.A VGND.t47 sky130_fd_pr__nfet_g5v0d10v5 ad=5.1075 pd=11.95 as=7.8525 ps=29.65 w=4.5 l=0.5
X7 ring_0/skullfet_inverter_4.A ring_0/skullfet_inverter_3.A VAPWR.t19 VAPWR.t18 sky130_fd_pr__pfet_g5v0d10v5 ad=7.5825 pd=29.53 as=5.3775 ps=12.07 w=4.5 l=0.5
X8 VGND.t68 ring_0/skullfet_inverter_6.A ring_0/skullfet_inverter_7.A VGND.t67 sky130_fd_pr__nfet_g5v0d10v5 ad=5.1075 pd=11.95 as=7.8525 ps=29.65 w=4.5 l=0.5
X9 a_13468_43697# a_13740_43697# VGND.t83 VGND.t53 sky130_fd_pr__nfet_01v8 ad=0.169 pd=1.82 as=0.08775 ps=0.92 w=0.65 l=0.15
X10 VDPWR.t59 freq_divider_0.sky130_fd_sc_hd__dfxbp_1_2.Q_N a_12647_43723# VDPWR.t58 sky130_fd_pr__pfet_01v8_hvt ad=0.1092 pd=1.36 as=0.05775 ps=0.695 w=0.42 l=0.15
X11 ring_0/skullfet_inverter_3.A ring_0/skullfet_inverter_2.A VAPWR.t1 VAPWR.t0 sky130_fd_pr__pfet_g5v0d10v5 ad=7.5825 pd=29.53 as=5.3775 ps=12.07 w=4.5 l=0.5
X12 VGND.t1 a_11441_43697# freq_divider_0.sky130_fd_sc_hd__dfxbp_1_2.Q_N VGND.t0 sky130_fd_pr__nfet_01v8 ad=0.097 pd=0.975 as=0.169 ps=1.82 w=0.65 l=0.15
X13 VAPWR.t9 ring_0/skullfet_inverter_19.A ring_0/skullfet_inverter_20.A VAPWR.t8 sky130_fd_pr__pfet_g5v0d10v5 ad=5.3775 pd=12.07 as=7.5825 ps=29.53 w=4.5 l=0.5
X14 a_12093_43697# uo_out[1].t2 VDPWR.t15 VDPWR.t14 sky130_fd_pr__pfet_01v8_hvt ad=0.1664 pd=1.8 as=0.0864 ps=0.91 w=0.64 l=0.15
X15 a_12051_44089# a_11536_43697# VDPWR.t41 VDPWR.t40 sky130_fd_pr__pfet_01v8_hvt ad=0.0882 pd=0.84 as=0.1113 ps=1.37 w=0.42 l=0.15
X16 VAPWR.t35 ring_0/skullfet_inverter_20.A ring_0/skullfet_inverter_20.Y VAPWR.t34 sky130_fd_pr__pfet_g5v0d10v5 ad=5.3775 pd=12.07 as=7.5825 ps=29.53 w=4.5 l=0.5
X17 a_14232_43697# a_14032_43997# a_14381_43723# VGND.t16 sky130_fd_pr__special_nfet_01v8 ad=0.0621 pd=0.705 as=0.0696 ps=0.765 w=0.36 l=0.15
X18 VGND.t11 ring_0/skullfet_inverter_9.A ring_0/skullfet_inverter_10.A VGND.t10 sky130_fd_pr__nfet_g5v0d10v5 ad=5.1075 pd=11.95 as=7.8525 ps=29.65 w=4.5 l=0.5
X19 VGND.t54 a_13468_43697# uo_out[1].t0 VGND.t53 sky130_fd_pr__nfet_01v8 ad=0.08775 pd=0.92 as=0.169 ps=1.82 w=0.65 l=0.15
X20 VDPWR.t5 a_9509_43697# freq_divider_0.sky130_fd_sc_hd__dfxbp_1_3.Q_N VDPWR.t4 sky130_fd_pr__pfet_01v8_hvt ad=0.154 pd=1.335 as=0.26 ps=2.52 w=1 l=0.15
X21 ring_0/skullfet_inverter_20.Y ring_0/skullfet_inverter_20.A VGND.t82 VGND.t81 sky130_fd_pr__nfet_g5v0d10v5 ad=7.8525 pd=29.65 as=5.1075 ps=11.95 w=4.5 l=0.5
X22 ring_0/skullfet_inverter_9.A skullfet_level_shifter.A VAPWR.t13 VAPWR.t12 sky130_fd_pr__pfet_g5v0d10v5 ad=7.5825 pd=29.53 as=5.3775 ps=12.07 w=4.5 l=0.5
X23 a_13960_43723# a_13468_43697# VGND.t52 VGND.t12 sky130_fd_pr__nfet_01v8 ad=0.066 pd=0.745 as=0.1092 ps=1.36 w=0.42 l=0.15
X24 ring_0/skullfet_inverter_17.A ring_0/skullfet_inverter_16.A VGND.t85 VGND.t84 sky130_fd_pr__nfet_g5v0d10v5 ad=7.8525 pd=29.65 as=5.1075 ps=11.95 w=4.5 l=0.5
X25 ring_0/skullfet_inverter_18.A ring_0/skullfet_inverter_17.A VGND.t87 VGND.t86 sky130_fd_pr__nfet_g5v0d10v5 ad=7.8525 pd=29.65 as=5.1075 ps=11.95 w=4.5 l=0.5
X26 VGND.t95 a_9604_43697# uo_out[3].t0 VGND.t94 sky130_fd_pr__nfet_01v8 ad=0.08775 pd=0.92 as=0.169 ps=1.82 w=0.65 l=0.15
X27 ring_0/skullfet_inverter_19.A ring_0/skullfet_inverter_18.A VGND.t89 VGND.t88 sky130_fd_pr__nfet_g5v0d10v5 ad=7.8525 pd=29.65 as=5.1075 ps=11.95 w=4.5 l=0.5
X28 VAPWR.t43 ring_0/skullfet_inverter_14.A ring_0/skullfet_inverter_15.A VAPWR.t42 sky130_fd_pr__pfet_g5v0d10v5 ad=5.3775 pd=12.07 as=7.5825 ps=29.53 w=4.5 l=0.5
X29 VGND.t3 a_14232_43697# a_14161_43723# VGND.t2 sky130_fd_pr__nfet_01v8 ad=0.12095 pd=1.085 as=0.0989 ps=0.995 w=0.64 l=0.15
X30 ring_0/skullfet_inverter_13.A ring_0/skullfet_inverter_12.A VAPWR.t23 VAPWR.t22 sky130_fd_pr__pfet_g5v0d10v5 ad=7.5825 pd=29.53 as=5.3775 ps=12.07 w=4.5 l=0.5
X31 VGND.t40 ring_0/skullfet_inverter_11.A ring_0/skullfet_inverter_12.A VGND.t39 sky130_fd_pr__nfet_g5v0d10v5 ad=5.1075 pd=11.95 as=7.8525 ps=29.65 w=4.5 l=0.5
X32 VGND.t5 ring_0/skullfet_inverter_2.A ring_0/skullfet_inverter_3.A VGND.t4 sky130_fd_pr__nfet_g5v0d10v5 ad=5.1075 pd=11.95 as=7.8525 ps=29.65 w=4.5 l=0.5
X33 a_12647_43723# a_12100_43997# a_12300_43697# VDPWR.t71 sky130_fd_pr__pfet_01v8_hvt ad=0.05775 pd=0.695 as=0.06825 ps=0.745 w=0.42 l=0.15
X34 ring_0/skullfet_inverter_14.A ring_0/skullfet_inverter_13.A VGND.t46 VGND.t45 sky130_fd_pr__nfet_g5v0d10v5 ad=7.8525 pd=29.65 as=5.1075 ps=11.95 w=4.5 l=0.5
X35 a_13468_43697# a_13740_43697# VDPWR.t61 VDPWR.t60 sky130_fd_pr__pfet_01v8_hvt ad=0.27 pd=2.54 as=0.135 ps=1.27 w=1 l=0.15
X36 ring_0/skullfet_inverter_2.A ring_0/skullfet_inverter_1.A VAPWR.t17 VAPWR.t16 sky130_fd_pr__pfet_g5v0d10v5 ad=7.5825 pd=29.53 as=5.3775 ps=12.07 w=4.5 l=0.5
X37 a_11441_43697# a_11536_43697# VDPWR.t39 VDPWR.t38 sky130_fd_pr__pfet_01v8_hvt ad=0.1664 pd=1.8 as=0.154 ps=1.335 w=0.64 l=0.15
X38 ring_0/skullfet_inverter_16.A ring_0/skullfet_inverter_15.A VGND.t79 VGND.t78 sky130_fd_pr__nfet_g5v0d10v5 ad=7.8525 pd=29.65 as=5.1075 ps=11.95 w=4.5 l=0.5
X39 VDPWR.t48 a_10161_43697# a_10168_43997# VDPWR.t47 sky130_fd_pr__pfet_01v8_hvt ad=0.0864 pd=0.91 as=0.1664 ps=1.8 w=0.64 l=0.15
X40 ring_0/skullfet_inverter_6.A ring_0/skullfet_inverter_5.A VAPWR.t27 VAPWR.t26 sky130_fd_pr__pfet_g5v0d10v5 ad=7.5825 pd=29.53 as=5.3775 ps=12.07 w=4.5 l=0.5
X41 uo_out[0].t0 skullfet_level_shifter.A VGND.t26 VGND.t25 sky130_fd_pr__nfet_g5v0d10v5 ad=7.8525 pd=29.65 as=5.1075 ps=11.95 w=4.5 l=0.5
X42 a_14025_43697# uo_out[0].t2 VGND.t31 VGND.t12 sky130_fd_pr__nfet_01v8 ad=0.1092 pd=1.36 as=0.0567 ps=0.69 w=0.42 l=0.15
X43 a_14232_43697# a_14025_43697# a_14408_44089# VDPWR.t55 sky130_fd_pr__pfet_01v8_hvt ad=0.06825 pd=0.745 as=0.07665 ps=0.785 w=0.42 l=0.15
X44 a_14161_43723# a_14025_43697# a_13740_43697# VDPWR.t54 sky130_fd_pr__pfet_01v8_hvt ad=0.1095 pd=1.075 as=0.0567 ps=0.69 w=0.42 l=0.15
X45 VDPWR.t35 a_13468_43697# uo_out[1].t1 VDPWR.t34 sky130_fd_pr__pfet_01v8_hvt ad=0.135 pd=1.27 as=0.26 ps=2.52 w=1 l=0.15
X46 VDPWR.t45 a_12093_43697# a_12100_43997# VDPWR.t44 sky130_fd_pr__pfet_01v8_hvt ad=0.0864 pd=0.91 as=0.1664 ps=1.8 w=0.64 l=0.15
X47 VDPWR.t67 a_9604_43697# uo_out[3].t1 VDPWR.t66 sky130_fd_pr__pfet_01v8_hvt ad=0.135 pd=1.27 as=0.26 ps=2.52 w=1 l=0.15
X48 VGND.t75 a_14025_43697# a_14032_43997# VGND.t12 sky130_fd_pr__nfet_01v8 ad=0.0567 pd=0.69 as=0.1092 ps=1.36 w=0.42 l=0.15
X49 a_9509_43697# a_9604_43697# VDPWR.t65 VDPWR.t64 sky130_fd_pr__pfet_01v8_hvt ad=0.1664 pd=1.8 as=0.154 ps=1.335 w=0.64 l=0.15
X50 VGND.t9 ring_0/skullfet_inverter_10.A ring_0/skullfet_inverter_11.A VGND.t8 sky130_fd_pr__nfet_g5v0d10v5 ad=5.1075 pd=11.95 as=7.8525 ps=29.65 w=4.5 l=0.5
X51 a_10119_44089# a_9604_43697# VDPWR.t63 VDPWR.t62 sky130_fd_pr__pfet_01v8_hvt ad=0.0882 pd=0.84 as=0.1113 ps=1.37 w=0.42 l=0.15
X52 a_10161_43697# uo_out[2].t2 VDPWR.t11 VDPWR.t10 sky130_fd_pr__pfet_01v8_hvt ad=0.1664 pd=1.8 as=0.0864 ps=0.91 w=0.64 l=0.15
X53 a_13740_43697# a_14032_43997# a_13983_44089# VDPWR.t9 sky130_fd_pr__pfet_01v8_hvt ad=0.0567 pd=0.69 as=0.0882 ps=0.84 w=0.42 l=0.15
X54 ua[0].t0 uo_out[0].t3 VAPWR.t31 VAPWR.t30 sky130_fd_pr__pfet_g5v0d10v5 ad=7.5825 pd=29.53 as=5.3775 ps=12.07 w=4.5 l=0.5
X55 VAPWR.t21 ring_0/skullfet_inverter_13.A ring_0/skullfet_inverter_14.A VAPWR.t20 sky130_fd_pr__pfet_g5v0d10v5 ad=5.3775 pd=12.07 as=7.5825 ps=29.53 w=4.5 l=0.5
X56 VGND.t42 ring_0/skullfet_inverter_1.A ring_0/skullfet_inverter_2.A VGND.t41 sky130_fd_pr__nfet_g5v0d10v5 ad=5.1075 pd=11.95 as=7.8525 ps=29.65 w=4.5 l=0.5
X57 a_12028_43723# a_11536_43697# VGND.t60 VGND.t59 sky130_fd_pr__nfet_01v8 ad=0.066 pd=0.745 as=0.1092 ps=1.36 w=0.42 l=0.15
X58 skullfet_level_shifter.A ring_0/skullfet_inverter_7.A VAPWR.t29 VAPWR.t28 sky130_fd_pr__pfet_g5v0d10v5 ad=7.5825 pd=29.53 as=5.3775 ps=12.07 w=4.5 l=0.5
X59 a_10517_43723# a_10297_43723# VGND.t28 VGND.t27 sky130_fd_pr__nfet_01v8 ad=0.0696 pd=0.765 as=0.12095 ps=1.085 w=0.42 l=0.15
X60 VAPWR.t41 ring_0/skullfet_inverter_18.A ring_0/skullfet_inverter_19.A VAPWR.t40 sky130_fd_pr__pfet_g5v0d10v5 ad=5.3775 pd=12.07 as=7.5825 ps=29.53 w=4.5 l=0.5
X61 VGND.t70 ring_0/skullfet_inverter_5.A ring_0/skullfet_inverter_6.A VGND.t69 sky130_fd_pr__nfet_g5v0d10v5 ad=5.1075 pd=11.95 as=7.8525 ps=29.65 w=4.5 l=0.5
X62 a_9604_43697# a_9876_43697# VGND.t37 VGND.t36 sky130_fd_pr__nfet_01v8 ad=0.169 pd=1.82 as=0.08775 ps=0.92 w=0.65 l=0.15
X63 VGND.t30 freq_divider_0.sky130_fd_sc_hd__dfxbp_1_1.Q_N a_14579_43723# VGND.t12 sky130_fd_pr__nfet_01v8 ad=0.1092 pd=1.36 as=0.0813 ps=0.83 w=0.42 l=0.15
X64 a_12093_43697# uo_out[1].t3 VGND.t29 VGND.t12 sky130_fd_pr__nfet_01v8 ad=0.1092 pd=1.36 as=0.0567 ps=0.69 w=0.42 l=0.15
X65 VAPWR.t33 ring_0/skullfet_inverter_15.A ring_0/skullfet_inverter_16.A VAPWR.t32 sky130_fd_pr__pfet_g5v0d10v5 ad=5.3775 pd=12.07 as=7.5825 ps=29.53 w=4.5 l=0.5
X66 a_12449_43723# a_12229_43723# VGND.t100 VGND.t12 sky130_fd_pr__nfet_01v8 ad=0.0696 pd=0.765 as=0.12095 ps=1.085 w=0.42 l=0.15
X67 VGND.t58 a_11536_43697# uo_out[2].t0 VGND.t57 sky130_fd_pr__nfet_01v8 ad=0.08775 pd=0.92 as=0.169 ps=1.82 w=0.65 l=0.15
X68 VGND.t7 a_9509_43697# freq_divider_0.sky130_fd_sc_hd__dfxbp_1_3.Q_N VGND.t6 sky130_fd_pr__nfet_01v8 ad=0.097 pd=0.975 as=0.169 ps=1.82 w=0.65 l=0.15
X69 VGND.t44 ring_0/skullfet_inverter_3.A ring_0/skullfet_inverter_4.A VGND.t43 sky130_fd_pr__nfet_g5v0d10v5 ad=5.1075 pd=11.95 as=7.8525 ps=29.65 w=4.5 l=0.5
X70 VGND.t38 a_12300_43697# a_12229_43723# VGND.t2 sky130_fd_pr__nfet_01v8 ad=0.12095 pd=1.085 as=0.0989 ps=0.995 w=0.64 l=0.15
X71 a_10715_43723# a_10168_43997# a_10368_43697# VDPWR.t57 sky130_fd_pr__pfet_01v8_hvt ad=0.05775 pd=0.695 as=0.06825 ps=0.745 w=0.42 l=0.15
X72 a_9604_43697# a_9876_43697# VDPWR.t25 VDPWR.t24 sky130_fd_pr__pfet_01v8_hvt ad=0.27 pd=2.54 as=0.135 ps=1.27 w=1 l=0.15
X73 a_11536_43697# a_11808_43697# VDPWR.t23 VDPWR.t22 sky130_fd_pr__pfet_01v8_hvt ad=0.27 pd=2.54 as=0.135 ps=1.27 w=1 l=0.15
X74 a_13373_43697# a_13468_43697# VGND.t51 VGND.t12 sky130_fd_pr__nfet_01v8 ad=0.1092 pd=1.36 as=0.097 ps=0.975 w=0.42 l=0.15
X75 a_14408_44089# a_14161_43723# VDPWR.t7 VDPWR.t6 sky130_fd_pr__pfet_01v8_hvt ad=0.07665 pd=0.785 as=0.178875 ps=1.26 w=0.42 l=0.15
X76 VGND.t72 ring_0/skullfet_inverter_7.A skullfet_level_shifter.A VGND.t71 sky130_fd_pr__nfet_g5v0d10v5 ad=5.1075 pd=11.95 as=7.8525 ps=29.65 w=4.5 l=0.5
X77 VGND.t66 a_10161_43697# a_10168_43997# VGND.t65 sky130_fd_pr__nfet_01v8 ad=0.0567 pd=0.69 as=0.1092 ps=1.36 w=0.42 l=0.15
X78 a_10096_43723# a_9604_43697# VGND.t93 VGND.t92 sky130_fd_pr__nfet_01v8 ad=0.066 pd=0.745 as=0.1092 ps=1.36 w=0.42 l=0.15
X79 VDPWR.t37 a_11536_43697# uo_out[2].t1 VDPWR.t36 sky130_fd_pr__pfet_01v8_hvt ad=0.135 pd=1.27 as=0.26 ps=2.52 w=1 l=0.15
X80 VDPWR.t69 a_13373_43697# freq_divider_0.sky130_fd_sc_hd__dfxbp_1_1.Q_N VDPWR.t68 sky130_fd_pr__pfet_01v8_hvt ad=0.154 pd=1.335 as=0.26 ps=2.52 w=1 l=0.15
X81 VDPWR.t19 freq_divider_0.sky130_fd_sc_hd__dfxbp_1_1.Q_N a_14579_43723# VDPWR.t18 sky130_fd_pr__pfet_01v8_hvt ad=0.1092 pd=1.36 as=0.05775 ps=0.695 w=0.42 l=0.15
X82 VGND.t62 a_12093_43697# a_12100_43997# VGND.t12 sky130_fd_pr__nfet_01v8 ad=0.0567 pd=0.69 as=0.1092 ps=1.36 w=0.42 l=0.15
X83 a_14579_43723# a_14025_43697# a_14232_43697# VGND.t16 sky130_fd_pr__special_nfet_01v8 ad=0.0813 pd=0.83 as=0.0621 ps=0.705 w=0.36 l=0.15
X84 a_14161_43723# a_14032_43997# a_13740_43697# VGND.t16 sky130_fd_pr__special_nfet_01v8 ad=0.0989 pd=0.995 as=0.0684 ps=0.74 w=0.36 l=0.15
X85 a_11808_43697# a_12100_43997# a_12051_44089# VDPWR.t70 sky130_fd_pr__pfet_01v8_hvt ad=0.0567 pd=0.69 as=0.0882 ps=0.84 w=0.42 l=0.15
X86 VAPWR.t39 ring_0/skullfet_inverter_17.A ring_0/skullfet_inverter_18.A VAPWR.t38 sky130_fd_pr__pfet_g5v0d10v5 ad=5.3775 pd=12.07 as=7.5825 ps=29.53 w=4.5 l=0.5
X87 a_10161_43697# uo_out[2].t3 VGND.t20 VGND.t19 sky130_fd_pr__nfet_01v8 ad=0.1092 pd=1.36 as=0.0567 ps=0.69 w=0.42 l=0.15
X88 VAPWR.t37 ring_0/skullfet_inverter_16.A ring_0/skullfet_inverter_17.A VAPWR.t36 sky130_fd_pr__pfet_g5v0d10v5 ad=5.3775 pd=12.07 as=7.5825 ps=29.53 w=4.5 l=0.5
X89 a_10368_43697# a_10168_43997# a_10517_43723# VGND.t76 sky130_fd_pr__special_nfet_01v8 ad=0.0621 pd=0.705 as=0.0696 ps=0.765 w=0.36 l=0.15
X90 a_11536_43697# a_11808_43697# VGND.t33 VGND.t32 sky130_fd_pr__nfet_01v8 ad=0.169 pd=1.82 as=0.08775 ps=0.92 w=0.65 l=0.15
X91 VGND.t50 a_10368_43697# a_10297_43723# VGND.t49 sky130_fd_pr__nfet_01v8 ad=0.12095 pd=1.085 as=0.0989 ps=0.995 w=0.64 l=0.15
X92 a_12300_43697# a_12100_43997# a_12449_43723# VGND.t16 sky130_fd_pr__special_nfet_01v8 ad=0.0621 pd=0.705 as=0.0696 ps=0.765 w=0.36 l=0.15
X93 a_11808_43697# a_12093_43697# a_12028_43723# VGND.t61 sky130_fd_pr__special_nfet_01v8 ad=0.0684 pd=0.74 as=0.066 ps=0.745 w=0.36 l=0.15
X94 ring_0/skullfet_inverter_1.A ring_0/skullfet_inverter_20.Y VAPWR.t7 VAPWR.t6 sky130_fd_pr__pfet_g5v0d10v5 ad=7.5825 pd=29.53 as=5.3775 ps=12.07 w=4.5 l=0.5
X95 VDPWR.t13 skullfet_level_shifter.A uo_out[0].t1 VDPWR.t12 sky130_fd_pr__pfet_g5v0d10v5 ad=5.3775 pd=12.07 as=7.5825 ps=29.53 w=4.5 l=0.5
X96 a_13373_43697# a_13468_43697# VDPWR.t33 VDPWR.t32 sky130_fd_pr__pfet_01v8_hvt ad=0.1664 pd=1.8 as=0.154 ps=1.335 w=0.64 l=0.15
X97 VDPWR.t3 a_14232_43697# a_14161_43723# VDPWR.t2 sky130_fd_pr__pfet_01v8_hvt ad=0.178875 pd=1.26 as=0.1095 ps=1.075 w=0.75 l=0.15
X98 a_13740_43697# a_14025_43697# a_13960_43723# VGND.t16 sky130_fd_pr__special_nfet_01v8 ad=0.0684 pd=0.74 as=0.066 ps=0.745 w=0.36 l=0.15
X99 a_10297_43723# a_10161_43697# a_9876_43697# VDPWR.t46 sky130_fd_pr__pfet_01v8_hvt ad=0.1095 pd=1.075 as=0.0567 ps=0.69 w=0.42 l=0.15
X100 a_11441_43697# a_11536_43697# VGND.t56 VGND.t55 sky130_fd_pr__nfet_01v8 ad=0.1092 pd=1.36 as=0.097 ps=0.975 w=0.42 l=0.15
X101 a_12476_44089# a_12229_43723# VDPWR.t73 VDPWR.t72 sky130_fd_pr__pfet_01v8_hvt ad=0.07665 pd=0.785 as=0.178875 ps=1.26 w=0.42 l=0.15
X102 a_12229_43723# a_12100_43997# a_11808_43697# VGND.t99 sky130_fd_pr__special_nfet_01v8 ad=0.0989 pd=0.995 as=0.0684 ps=0.74 w=0.36 l=0.15
X103 a_12229_43723# a_12093_43697# a_11808_43697# VDPWR.t43 sky130_fd_pr__pfet_01v8_hvt ad=0.1095 pd=1.075 as=0.0567 ps=0.69 w=0.42 l=0.15
X104 a_12300_43697# a_12093_43697# a_12476_44089# VDPWR.t42 sky130_fd_pr__pfet_01v8_hvt ad=0.06825 pd=0.745 as=0.07665 ps=0.785 w=0.42 l=0.15
X105 ring_0/skullfet_inverter_12.A ring_0/skullfet_inverter_11.A VAPWR.t15 VAPWR.t14 sky130_fd_pr__pfet_g5v0d10v5 ad=7.5825 pd=29.53 as=5.3775 ps=12.07 w=4.5 l=0.5
X106 a_10715_43723# a_10161_43697# a_10368_43697# VGND.t64 sky130_fd_pr__special_nfet_01v8 ad=0.0813 pd=0.83 as=0.0621 ps=0.705 w=0.36 l=0.15
X107 VDPWR.t1 a_11441_43697# freq_divider_0.sky130_fd_sc_hd__dfxbp_1_2.Q_N VDPWR.t0 sky130_fd_pr__pfet_01v8_hvt ad=0.154 pd=1.335 as=0.26 ps=2.52 w=1 l=0.15
X108 VGND.t15 ring_0/skullfet_inverter_20.Y ring_0/skullfet_inverter_1.A VGND.t14 sky130_fd_pr__nfet_g5v0d10v5 ad=5.1075 pd=11.95 as=7.8525 ps=29.65 w=4.5 l=0.5
X109 VGND.t24 skullfet_level_shifter.A ring_0/skullfet_inverter_9.A VGND.t23 sky130_fd_pr__nfet_g5v0d10v5 ad=5.1075 pd=11.95 as=7.8525 ps=29.65 w=4.5 l=0.5
X110 VGND.t98 a_13373_43697# freq_divider_0.sky130_fd_sc_hd__dfxbp_1_1.Q_N VGND.t53 sky130_fd_pr__nfet_01v8 ad=0.097 pd=0.975 as=0.169 ps=1.82 w=0.65 l=0.15
X111 a_9509_43697# a_9604_43697# VGND.t91 VGND.t90 sky130_fd_pr__nfet_01v8 ad=0.1092 pd=1.36 as=0.097 ps=0.975 w=0.42 l=0.15
X112 VGND.t74 freq_divider_0.sky130_fd_sc_hd__dfxbp_1_3.Q_N a_10715_43723# VGND.t73 sky130_fd_pr__nfet_01v8 ad=0.1092 pd=1.36 as=0.0813 ps=0.83 w=0.42 l=0.15
X113 a_12647_43723# a_12093_43697# a_12300_43697# VGND.t16 sky130_fd_pr__special_nfet_01v8 ad=0.0813 pd=0.83 as=0.0621 ps=0.705 w=0.36 l=0.15
X114 a_9876_43697# a_10168_43997# a_10119_44089# VDPWR.t56 sky130_fd_pr__pfet_01v8_hvt ad=0.0567 pd=0.69 as=0.0882 ps=0.84 w=0.42 l=0.15
X115 ring_0/skullfet_inverter_5.A ring_0/skullfet_inverter_4.A VAPWR.t11 VAPWR.t10 sky130_fd_pr__pfet_g5v0d10v5 ad=7.5825 pd=29.53 as=5.3775 ps=12.07 w=4.5 l=0.5
X116 a_14381_43723# a_14161_43723# VGND.t13 VGND.t12 sky130_fd_pr__nfet_01v8 ad=0.0696 pd=0.765 as=0.12095 ps=1.085 w=0.42 l=0.15
X117 VGND.t80 freq_divider_0.sky130_fd_sc_hd__dfxbp_1_2.Q_N a_12647_43723# VGND.t12 sky130_fd_pr__nfet_01v8 ad=0.1092 pd=1.36 as=0.0813 ps=0.83 w=0.42 l=0.15
X118 VGND.t35 uo_out[0].t4 ua[0].t1 VGND.t34 sky130_fd_pr__nfet_g5v0d10v5 ad=5.1075 pd=11.95 as=7.8525 ps=29.65 w=4.5 l=0.5
X119 a_14579_43723# a_14032_43997# a_14232_43697# VDPWR.t8 sky130_fd_pr__pfet_01v8_hvt ad=0.05775 pd=0.695 as=0.06825 ps=0.745 w=0.42 l=0.15
X120 ring_0/skullfet_inverter_20.A ring_0/skullfet_inverter_19.A VGND.t18 VGND.t17 sky130_fd_pr__nfet_g5v0d10v5 ad=7.8525 pd=29.65 as=5.1075 ps=11.95 w=4.5 l=0.5
X121 ring_0/skullfet_inverter_11.A ring_0/skullfet_inverter_10.A VAPWR.t3 VAPWR.t2 sky130_fd_pr__pfet_g5v0d10v5 ad=7.5825 pd=29.53 as=5.3775 ps=12.07 w=4.5 l=0.5
X122 VDPWR.t29 a_10368_43697# a_10297_43723# VDPWR.t28 sky130_fd_pr__pfet_01v8_hvt ad=0.178875 pd=1.26 as=0.1095 ps=1.075 w=0.75 l=0.15
X123 a_9876_43697# a_10161_43697# a_10096_43723# VGND.t63 sky130_fd_pr__special_nfet_01v8 ad=0.0684 pd=0.74 as=0.066 ps=0.745 w=0.36 l=0.15
X124 ring_0/skullfet_inverter_10.A ring_0/skullfet_inverter_9.A VAPWR.t5 VAPWR.t4 sky130_fd_pr__pfet_g5v0d10v5 ad=7.5825 pd=29.53 as=5.3775 ps=12.07 w=4.5 l=0.5
X125 a_14025_43697# uo_out[0].t5 VDPWR.t21 VDPWR.t20 sky130_fd_pr__pfet_01v8_hvt ad=0.1664 pd=1.8 as=0.0864 ps=0.91 w=0.64 l=0.15
X126 a_13983_44089# a_13468_43697# VDPWR.t31 VDPWR.t30 sky130_fd_pr__pfet_01v8_hvt ad=0.0882 pd=0.84 as=0.1113 ps=1.37 w=0.42 l=0.15
X127 ring_0/skullfet_inverter_15.A ring_0/skullfet_inverter_14.A VGND.t97 VGND.t96 sky130_fd_pr__nfet_g5v0d10v5 ad=7.8525 pd=29.65 as=5.1075 ps=11.95 w=4.5 l=0.5
X128 VDPWR.t27 a_12300_43697# a_12229_43723# VDPWR.t26 sky130_fd_pr__pfet_01v8_hvt ad=0.178875 pd=1.26 as=0.1095 ps=1.075 w=0.75 l=0.15
X129 VDPWR.t53 a_14025_43697# a_14032_43997# VDPWR.t52 sky130_fd_pr__pfet_01v8_hvt ad=0.0864 pd=0.91 as=0.1664 ps=1.8 w=0.64 l=0.15
R0 VAPWR.n68 VAPWR.t31 738.801
R1 VAPWR.n52 VAPWR.t21 738.799
R2 VAPWR.n54 VAPWR.t23 738.799
R3 VAPWR.n38 VAPWR.t9 738.799
R4 VAPWR.n34 VAPWR.t35 738.799
R5 VAPWR.n6 VAPWR.t17 738.799
R6 VAPWR.n41 VAPWR.t41 738.799
R7 VAPWR.n44 VAPWR.t39 738.799
R8 VAPWR.n47 VAPWR.t37 738.799
R9 VAPWR.n4 VAPWR.t33 738.799
R10 VAPWR.n2 VAPWR.t43 738.799
R11 VAPWR.n60 VAPWR.t3 738.799
R12 VAPWR.n57 VAPWR.t15 738.799
R13 VAPWR.n32 VAPWR.t7 738.799
R14 VAPWR.n7 VAPWR.t1 738.799
R15 VAPWR.n11 VAPWR.t27 738.799
R16 VAPWR.n22 VAPWR.t25 738.799
R17 VAPWR.n19 VAPWR.t29 738.799
R18 VAPWR.n16 VAPWR.t13 738.799
R19 VAPWR.n13 VAPWR.t5 738.799
R20 VAPWR.n9 VAPWR.t11 738.799
R21 VAPWR.n27 VAPWR.t19 738.799
R22 VAPWR.n68 VAPWR.t30 707.519
R23 VAPWR.n60 VAPWR.t2 707.519
R24 VAPWR.n57 VAPWR.t14 707.519
R25 VAPWR.n52 VAPWR.t20 707.519
R26 VAPWR.n54 VAPWR.t22 707.519
R27 VAPWR.n38 VAPWR.t8 707.519
R28 VAPWR.n34 VAPWR.t34 707.519
R29 VAPWR.n32 VAPWR.t6 707.519
R30 VAPWR.n6 VAPWR.t16 707.519
R31 VAPWR.n7 VAPWR.t0 707.519
R32 VAPWR.n11 VAPWR.t26 707.519
R33 VAPWR.n22 VAPWR.t24 707.519
R34 VAPWR.n19 VAPWR.t28 707.519
R35 VAPWR.n16 VAPWR.t12 707.519
R36 VAPWR.n13 VAPWR.t4 707.519
R37 VAPWR.n9 VAPWR.t10 707.519
R38 VAPWR.n27 VAPWR.t18 707.519
R39 VAPWR.n41 VAPWR.t40 707.519
R40 VAPWR.n44 VAPWR.t38 707.519
R41 VAPWR.n47 VAPWR.t36 707.519
R42 VAPWR.n4 VAPWR.t32 707.519
R43 VAPWR.n2 VAPWR.t42 707.519
R44 VAPWR.n69 VAPWR.n68 13.3797
R45 VAPWR.n61 VAPWR.n60 13.3797
R46 VAPWR.n58 VAPWR.n57 13.3797
R47 VAPWR.n33 VAPWR.n32 13.3797
R48 VAPWR.n8 VAPWR.n7 13.3797
R49 VAPWR.n12 VAPWR.n11 13.3797
R50 VAPWR.n23 VAPWR.n22 13.3797
R51 VAPWR.n20 VAPWR.n19 13.3797
R52 VAPWR.n17 VAPWR.n16 13.3797
R53 VAPWR.n14 VAPWR.n13 13.3797
R54 VAPWR.n10 VAPWR.n9 13.3797
R55 VAPWR.n28 VAPWR.n27 13.3797
R56 VAPWR.n53 VAPWR.n52 13.3223
R57 VAPWR VAPWR.n54 13.3223
R58 VAPWR.n39 VAPWR.n38 13.3223
R59 VAPWR.n35 VAPWR.n34 13.3223
R60 VAPWR VAPWR.n6 13.3223
R61 VAPWR.n42 VAPWR.n41 13.3223
R62 VAPWR.n45 VAPWR.n44 13.3223
R63 VAPWR.n48 VAPWR.n47 13.3223
R64 VAPWR.n5 VAPWR.n4 13.3223
R65 VAPWR.n3 VAPWR.n2 13.3223
R66 VAPWR.n70 VAPWR.n69 10.0371
R67 VAPWR.n59 VAPWR.n58 9.70762
R68 VAPWR.n18 VAPWR.n15 9.45042
R69 VAPWR.n31 VAPWR 8.52916
R70 VAPWR.n62 VAPWR.n61 7.92611
R71 VAPWR.n40 VAPWR.n37 7.71912
R72 VAPWR.n15 VAPWR.n14 7.71771
R73 VAPWR.n31 VAPWR.n30 7.41572
R74 VAPWR.n55 VAPWR 7.13154
R75 VAPWR.n40 VAPWR.n39 7.11663
R76 VAPWR.n18 VAPWR.n17 7.10884
R77 VAPWR.n43 VAPWR.n42 6.89753
R78 VAPWR.n21 VAPWR.n20 6.54898
R79 VAPWR.n49 VAPWR.n46 6.23852
R80 VAPWR.n30 VAPWR.n8 6.19396
R81 VAPWR.n46 VAPWR.n45 6.10554
R82 VAPWR.n29 VAPWR.n28 6.01845
R83 VAPWR.n36 VAPWR.n35 5.92055
R84 VAPWR.n49 VAPWR.n48 5.84717
R85 VAPWR.n24 VAPWR.n23 5.78073
R86 VAPWR.n26 VAPWR.n10 5.73072
R87 VAPWR.n50 VAPWR.n5 5.60146
R88 VAPWR.n51 VAPWR.n3 5.59565
R89 VAPWR.n25 VAPWR.n12 5.50466
R90 VAPWR.n55 VAPWR.n53 4.89777
R91 VAPWR.n36 VAPWR.n33 4.86074
R92 VAPWR.n46 VAPWR.n43 4.01511
R93 VAPWR.n66 VAPWR 3.49767
R94 VAPWR.n70 VAPWR.n67 3.40236
R95 VAPWR.n37 VAPWR.n36 2.91269
R96 VAPWR.n59 VAPWR.n56 2.82184
R97 VAPWR.n1 VAPWR.n0 1.63622
R98 VAPWR.n24 VAPWR.n21 1.36014
R99 VAPWR.n30 VAPWR.n29 1.34127
R100 VAPWR.n56 VAPWR.n51 1.32921
R101 VAPWR.n56 VAPWR.n55 1.313
R102 VAPWR.n63 VAPWR.n0 1.29727
R103 VAPWR.n29 VAPWR.n26 1.10191
R104 VAPWR.n51 VAPWR.n50 0.940035
R105 VAPWR.n62 VAPWR.n59 0.85748
R106 VAPWR.n37 VAPWR.n31 0.767594
R107 VAPWR.n66 VAPWR.n65 0.616014
R108 VAPWR.n25 VAPWR.n24 0.52495
R109 VAPWR.n43 VAPWR.n40 0.514977
R110 VAPWR.n15 VAPWR.n1 0.507476
R111 VAPWR.n26 VAPWR.n25 0.505442
R112 VAPWR.n21 VAPWR.n18 0.500622
R113 VAPWR.n50 VAPWR.n49 0.483622
R114 VAPWR.n65 VAPWR.n0 0.20333
R115 VAPWR.n67 VAPWR 0.193138
R116 VAPWR.n69 VAPWR 0.057877
R117 VAPWR.n61 VAPWR 0.057877
R118 VAPWR.n58 VAPWR 0.057877
R119 VAPWR.n33 VAPWR 0.057877
R120 VAPWR.n8 VAPWR 0.057877
R121 VAPWR.n12 VAPWR 0.057877
R122 VAPWR.n23 VAPWR 0.057877
R123 VAPWR.n20 VAPWR 0.057877
R124 VAPWR.n17 VAPWR 0.057877
R125 VAPWR.n14 VAPWR 0.057877
R126 VAPWR.n10 VAPWR 0.057877
R127 VAPWR.n28 VAPWR 0.057877
R128 VAPWR.n53 VAPWR 0.0496071
R129 VAPWR.n39 VAPWR 0.0496071
R130 VAPWR.n35 VAPWR 0.0496071
R131 VAPWR.n42 VAPWR 0.0496071
R132 VAPWR.n45 VAPWR 0.0496071
R133 VAPWR.n48 VAPWR 0.0496071
R134 VAPWR.n5 VAPWR 0.0496071
R135 VAPWR.n3 VAPWR 0.0496071
R136 VAPWR VAPWR.n70 0.0475
R137 VAPWR.n65 VAPWR.n64 0.0335189
R138 VAPWR.n70 VAPWR 0.024
R139 VAPWR.n64 VAPWR.n1 0.00474612
R140 VAPWR.n63 VAPWR.n62 0.00305102
R141 VAPWR.n64 VAPWR.n63 0.00285849
R142 VAPWR.n67 VAPWR.n66 0.0018126
R143 VGND.n394 VGND.n393 101372
R144 VGND.n408 VGND.n407 97829.8
R145 VGND.n452 VGND.n10 64989.2
R146 VGND.n392 VGND.n391 63317.7
R147 VGND.n320 VGND.n315 49981.2
R148 VGND.n329 VGND.t8 48989.1
R149 VGND.n390 VGND.n317 48956.8
R150 VGND.n236 VGND.n15 46397.1
R151 VGND.n318 VGND.n29 34056.2
R152 VGND.t67 VGND.n27 32820.9
R153 VGND.n355 VGND.n352 31013.9
R154 VGND.n358 VGND.n352 30664.6
R155 VGND.n143 VGND.n27 30664.6
R156 VGND.n410 VGND.n409 29705.2
R157 VGND.n321 VGND.n320 26125.9
R158 VGND.n330 VGND.n329 24501.8
R159 VGND.n332 VGND.n321 22668.4
R160 VGND.n393 VGND.n317 20954.6
R161 VGND.n407 VGND.n29 20954.6
R162 VGND.n409 VGND.n408 20954.6
R163 VGND.n323 VGND.n13 18294.4
R164 VGND.t6 VGND.n15 14642.2
R165 VGND.n352 VGND.n317 13862.9
R166 VGND.n409 VGND.n27 13853.3
R167 VGND.n312 VGND.n310 13669.6
R168 VGND.n329 VGND.n321 10983.3
R169 VGND.n236 VGND.n235 10461.7
R170 VGND.n391 VGND.t45 8761.83
R171 VGND.n332 VGND.n331 8254.98
R172 VGND.n408 VGND.n10 8171.07
R173 VGND.n393 VGND.n392 8164.43
R174 VGND.n453 VGND.n452 8158.04
R175 VGND.n452 VGND.n13 8007.21
R176 VGND.n391 VGND.n332 8000.6
R177 VGND.n406 VGND.n31 7798.05
R178 VGND.n236 VGND 7183.82
R179 VGND.n310 VGND.n31 7076.09
R180 VGND.n392 VGND.n320 6658.85
R181 VGND.n13 VGND.n12 6298.11
R182 VGND.n391 VGND.n390 5608.83
R183 VGND.n238 VGND.n237 5446.6
R184 VGND.n312 VGND.n311 4952.1
R185 VGND.n318 VGND.n10 4690.48
R186 VGND.n400 VGND.t14 4526.67
R187 VGND.n395 VGND.n315 4456.64
R188 VGND.n330 VGND.n322 4323.23
R189 VGND.n326 VGND.n13 4311.21
R190 VGND.n405 VGND.t14 3320.6
R191 VGND.n319 VGND.n31 3097.77
R192 VGND.n323 VGND.n320 3097.77
R193 VGND.n396 VGND.n314 3043.22
R194 VGND.n326 VGND.n325 2374.28
R195 VGND.n328 VGND.n326 2325.64
R196 VGND.n394 VGND.t88 2293.69
R197 VGND.n452 VGND.n14 2139.51
R198 VGND.n384 VGND.t45 2108.34
R199 VGND.n396 VGND.n31 2021.45
R200 VGND.t17 VGND.n314 1523.34
R201 VGND.n12 VGND.t10 1523.34
R202 VGND.n453 VGND.t23 1523.34
R203 VGND.n407 VGND.t43 1467.82
R204 VGND.n406 VGND.n30 1463.87
R205 VGND.n390 VGND.t96 1206.01
R206 VGND.n414 VGND.n413 1198.25
R207 VGND.n412 VGND.n25 1198.25
R208 VGND.n311 VGND.n0 963.163
R209 VGND.n306 VGND.n29 921.593
R210 VGND.n359 VGND.n316 892.495
R211 VGND.n389 VGND.t78 842.21
R212 VGND.t92 VGND.t36 809.293
R213 VGND.n407 VGND.n406 807.846
R214 VGND.t94 VGND.t90 800.774
R215 VGND.t21 VGND.n28 787.793
R216 VGND.n310 VGND.t14 759.1
R217 VGND.n395 VGND.n394 634.295
R218 VGND.n311 VGND.t34 614.494
R219 VGND.n451 VGND.n15 613.852
R220 VGND.n235 VGND.n234 595.942
R221 VGND.n30 VGND.n29 587.612
R222 VGND.n314 VGND.n313 585
R223 VGND.n12 VGND.n11 585
R224 VGND.n328 VGND.n327 585
R225 VGND.n451 VGND.n450 585
R226 VGND.n357 VGND.n356 585
R227 VGND.n354 VGND.n353 585
R228 VGND.n389 VGND.n388 585
R229 VGND.n361 VGND.n316 585
R230 VGND.n360 VGND.n359 585
R231 VGND.n398 VGND.n397 585
R232 VGND.n325 VGND.n324 585
R233 VGND.n454 VGND.n453 585
R234 VGND.n74 VGND.n14 585
R235 VGND.n146 VGND.n145 585
R236 VGND.n239 VGND.n238 585
R237 VGND.n33 VGND.n28 585
R238 VGND.n142 VGND.n141 585
R239 VGND.n405 VGND.n404 585
R240 VGND.t8 VGND.n328 574.539
R241 VGND.t69 VGND.n143 539.317
R242 VGND.t84 VGND.n355 533.332
R243 VGND.t86 VGND.n358 500.077
R244 VGND.n238 VGND.t67 489.839
R245 VGND.t77 VGND.t63 451.5
R246 VGND.t49 VGND.t77 430.204
R247 VGND.n30 VGND.t4 427.527
R248 VGND.n331 VGND.t47 424.175
R249 VGND.t63 VGND.t92 404.647
R250 VGND.t90 VGND.t6 404.647
R251 VGND.n355 VGND.n354 382.728
R252 VGND.n143 VGND.n142 377.945
R253 VGND.n411 VGND.t49 370.572
R254 VGND.n325 VGND.t39 362.452
R255 VGND.n315 VGND.t17 360.884
R256 VGND.n358 VGND.n357 360.842
R257 VGND.t36 VGND.t94 357.793
R258 VGND.n452 VGND.t25 313.435
R259 VGND.n407 VGND.n28 302.216
R260 VGND.n0 VGND.t35 282.132
R261 VGND.n239 VGND.t68 282.13
R262 VGND.n306 VGND.t5 282.13
R263 VGND.n141 VGND.t22 282.13
R264 VGND.n33 VGND.t44 282.13
R265 VGND.n11 VGND.t11 282.13
R266 VGND.n327 VGND.t9 282.13
R267 VGND.n400 VGND.t15 282.13
R268 VGND.n324 VGND.t40 282.13
R269 VGND.n454 VGND.t24 282.13
R270 VGND.n74 VGND.t72 282.13
R271 VGND.n145 VGND.t70 282.13
R272 VGND.n450 VGND.t26 281.841
R273 VGND.n404 VGND.t42 281.839
R274 VGND.n398 VGND.t82 281.839
R275 VGND.n360 VGND.t87 281.839
R276 VGND.n361 VGND.t89 281.839
R277 VGND.n384 VGND.t46 281.839
R278 VGND.n313 VGND.t18 281.839
R279 VGND.n322 VGND.t48 281.839
R280 VGND.n388 VGND.t97 281.839
R281 VGND.n353 VGND.t79 281.839
R282 VGND.n356 VGND.t85 281.839
R283 VGND.n329 VGND.n323 264.286
R284 VGND.n177 VGND.t52 251
R285 VGND.n214 VGND.t60 251
R286 VGND.n437 VGND.t93 251
R287 VGND.n331 VGND.t39 245.631
R288 VGND.n157 VGND.t30 243.028
R289 VGND.n227 VGND.t80 243.028
R290 VGND.n424 VGND.t74 243.028
R291 VGND.n411 VGND.t71 232.994
R292 VGND.n179 VGND.n151 218.506
R293 VGND.n201 VGND.n200 218.506
R294 VGND.n439 VGND.n438 218.506
R295 VGND.t25 VGND.n451 212.357
R296 VGND.n320 VGND.n319 209.014
R297 VGND.n186 VGND.n185 200.201
R298 VGND.n204 VGND.n203 200.201
R299 VGND.n447 VGND.n446 200.201
R300 VGND.n160 VGND.n159 199.739
R301 VGND.n192 VGND.n191 199.739
R302 VGND.n420 VGND.n419 199.739
R303 VGND.n155 VGND.n154 199.53
R304 VGND.n221 VGND.n196 199.53
R305 VGND.n430 VGND.n22 199.53
R306 VGND.t71 VGND.n14 196.702
R307 VGND.n396 VGND.n395 178.196
R308 VGND.n237 VGND.n236 165.179
R309 VGND.n146 VGND.t69 162.868
R310 VGND.n142 VGND.t21 153.912
R311 VGND.n357 VGND.t84 153.888
R312 VGND.n354 VGND.t78 151.095
R313 VGND.t96 VGND.n389 151.095
R314 VGND.n359 VGND.t86 145.869
R315 VGND.t81 VGND.n396 130.082
R316 VGND.n406 VGND.t41 129.425
R317 VGND.t16 VGND 118.189
R318 VGND.n397 VGND.t81 99.8351
R319 VGND.t41 VGND.n405 99.332
R320 VGND.n154 VGND.t3 74.8666
R321 VGND.n196 VGND.t38 74.8666
R322 VGND.n22 VGND.t50 74.8666
R323 VGND.n394 VGND.n316 73.7658
R324 VGND.t59 VGND.t32 69.615
R325 VGND.t57 VGND.t55 68.8822
R326 VGND.t65 VGND.t73 68.8822
R327 VGND.t47 VGND.n330 54.4208
R328 VGND.n185 VGND.t51 54.2862
R329 VGND.n203 VGND.t56 54.2862
R330 VGND.n446 VGND.t91 54.2862
R331 VGND.n397 VGND.n312 54.1077
R332 VGND.n236 VGND.n146 53.7948
R333 VGND.t73 VGND.t64 41.0364
R334 VGND.n154 VGND.t13 40.0005
R335 VGND.n196 VGND.t100 40.0005
R336 VGND.n22 VGND.t28 40.0005
R337 VGND.t99 VGND.t61 38.838
R338 VGND.n159 VGND.t31 38.5719